*HEADING
cubit(x/Writings/2017_QDES_DG/matlab/2d/seas/meshes/BP1_V12.inp): 04/06/2018: 13
version: 15.2
**
********************************** P A R T S **********************************
*PART, NAME=Part-Default
**
********************************** N O D E S **********************************
*NODE, NSET=ALLNODES
       1,    0.000000e+00,   -1.951220e+02,    0.000000e+00
       2,   -4.749902e+01,   -1.995483e+02,    0.000000e+00
       3,   -4.656376e+01,   -2.440803e+02,    0.000000e+00
       4,    0.000000e+00,   -2.902439e+02,    0.000000e+00
       5,   -9.014118e+01,   -2.990933e+02,    0.000000e+00
       6,   -9.215560e+01,   -2.424129e+02,    0.000000e+00
       7,   -2.902439e+02,    0.000000e+00,    0.000000e+00
       8,   -3.853659e+02,    0.000000e+00,    0.000000e+00
       9,   -3.859717e+02,   -9.200071e+01,    0.000000e+00
      10,   -2.990933e+02,   -9.014118e+01,    0.000000e+00
      11,   -4.804878e+02,    0.000000e+00,    0.000000e+00
      12,   -4.796018e+02,   -9.352480e+01,    0.000000e+00
      13,   -5.756098e+02,    0.000000e+00,    0.000000e+00
      14,   -5.746920e+02,   -9.445636e+01,    0.000000e+00
      15,   -6.707317e+02,    0.000000e+00,    0.000000e+00
      16,   -6.700380e+02,   -9.500439e+01,    0.000000e+00
      17,   -7.658537e+02,    0.000000e+00,    0.000000e+00
      18,   -7.653731e+02,   -9.532970e+01,    0.000000e+00
      19,   -8.609756e+02,    0.000000e+00,    0.000000e+00
      20,   -8.606526e+02,   -9.552560e+01,    0.000000e+00
** ... 7967 like lines cut
**
********************************** E L E M E N T S ****************************
*ELEMENT, TYPE=S4R, ELSET=EB1
       1,       1,       2,       3,       4
       2,       5,       4,       3,       6
       3,       7,       8,       9,      10
       4,       8,      11,      12,       9
       5,      11,      13,      14,      12
       6,      13,      15,      16,      14
       7,      15,      17,      18,      16
       8,      17,      19,      20,      18
       9,      19,      21,      22,      20
      10,      21,      23,      24,      22
      11,      23,      25,      26,      24
      12,      25,      27,      28,      26
      13,      27,      29,      30,      28
      14,      29,      31,      32,      30
      15,      31,      33,      34,      32
      16,      33,      35,      36,      34
      17,      35,      37,      38,      36
      18,      37,      39,      40,      38
      19,      39,      41,      42,      40
      20,      41,      43,      44,      42
** ... 7820 like lines cut
**
********************************** S I D E S E T S **********************************
*ELSET, ELSET=SS1_E1
    5643
*ELSET, ELSET=SS1_E2
      41,      82,     123,     164,     205,     246,     287,     328,     369,     410,
     451,     492,     533,     574,     615,     656,     697,     738,     779,     820,
     861,     902,     943,     984,    1025,    1066,    1107,    1148,    1189,    1230,
    1271,    1312,    1353,    1394,    1435,    1476,    1517,    1558,    1599,    1640,
    1681,    1722
*ELSET, ELSET=SS1_E3
    5602,    5603,    5604,    5605,    5606,    5607,    5608,    5609,    5610,    5611,
    5612,    5613,    5614,    5615,    5616,    5617,    5618,    5619,    5620,    5621,
    5622,    5623,    5624,    5625,    5626,    5627,    5628,    5629,    5630,    5631,
    5632,    5633,    5634,    5635,    5636,    5637,    5638,    5639,    5640,    5641,
    5642
*SURFACE, NAME=SS1
SS1_E1, E1
SS1_E2, E2
SS1_E3, E3
*ELSET, ELSET=SS2_E1
       3,       4,       5,       6,       7,       8,       9,      10,      11,      12,
      13,      14,      15,      16,      17,      18,      19,      20,      21,      22,
      23,      24,      25,      26,      27,      28,      29,      30,      31,      32,
      33,      34,      35,      36,      37,      38,      39,      40,      41,    1723,
    1777,    1802,    1810,    1847,    1862,    1925,    1974,    2017,    2031,    2095,
    2217,    2464,    3592,    5753,    5877,    5890,    5934,    7515
*ELSET, ELSET=SS2_E2
    1890,    1898,    1906,    1914,    1922,    3961,    4002,    4043,    4084,    4125,
    4166,    4207,    4248,    4289,    4330,    4371,    4412,    4453,    4494,    4535,
    4576,    4617,    4658,    4699,    4740,    4781,    4822,    4863,    4904,    4945,
    4986,    5027,    5068,    5109,    5150,    5191,    5232,    5273,    5314,    5355,
    5396,    5437,    5478,    5519,    5560,    5601,    5642,    5643,    5644,    5645,
    5646,    5647,    5648,    5649,    5650,    5651,    5652,    5653,    5654,    5655,
    5656,    5657,    5658,    5659,    5660,    5661,    5662,    5663,    5664,    5665,
    5666,    5667,    5668,    5669,    5670,    5671,    5672,    5673,    5674,    5675,
    5676,    5677,    5678,    5679,    5680,    5681
*ELSET, ELSET=SS2_E3
    1682,    1683,    1684,    1685,    1686,    1687,    1688,    1689,    1690,    1691,
    1692,    1693,    1694,    1695,    1696,    1697,    1698,    1699,    1700,    1701,
    1702,    1703,    1704,    1705,    1706,    1707,    1708,    1709,    1710,    1711,
    1712,    1713,    1714,    1715,    1716,    1717,    1718,    1719,    1720,    1721,
    1722,    5838,    5839,    5840,    5841,    5842
*ELSET, ELSET=SS2_E4
    1811,    1957,    1967,    2014,    3593,    3921,    5684,    5701,    5750,    5795,
    5845,    5894,    5935,    5950,    6014,    6136,    6383,    7512
*SURFACE, NAME=SS2
SS2_E1, E1
SS2_E2, E2
SS2_E3, E3
SS2_E4, E4
*ELSET, ELSET=SS3_E1
    1833,    1859,    1860,    1923,    1961,    1962,    1969,    3723,    3923,    3924,
    3925,    3926,    3927,    3928,    3929,    3930,    3931,    3932,    3933,    3934,
    3935,    3936,    3937,    3938,    3939,    3940,    3941,    3942,    3943,    3944,
    3945,    3946,    3947,    3948,    3949,    3950,    3951,    3952,    3953,    3954,
    3955,    3956,    3957,    3958,    3959,    3960,    3961,    5697,    5722,    5730,
    5767,    5879,    5885,    5943,    6333,    6772,    7640,    7645
*ELSET, ELSET=SS3_E2
    1723,    1724,    1725,    1726,    1727,    1728,    1729,    1730,    1731,    1732,
    1733,    1734,    1735,    1736,    1737,    1738,    1739,    1740,    1741,    1742,
    1743,    1744,    1745,    1746,    1747,    1748,    1749,    1750,    1751,    1752,
    1753,    1754,    1755,    1756,    1757,    1758,    1759,    1760,    1761
*ELSET, ELSET=SS3_E4
       1,    1764,    1781,    1830,    1959,    1963,    2024,    2423,    2865,    3720,
    3738,    5731,    5779,    5787,    5843,    5880,    5882,    5891,    7641
*SURFACE, NAME=SS3
SS3_E1, E1
SS3_E2, E2
SS3_E4, E4
*ELSET, ELSET=SS7_E1
    2952,    2959,    2963,    2964,    2971,    2972,    2976,    2983,    2987,    2988,
    2992,    2999,    3000,    3007,    3011,    3012,    3019,    3020,    3024,    3031,
    3032,    3039,    3043,    3044,    3048,    3055,    3059,    3060,    3067,    3068,
    3072,    3079,    3083,    3084,    3088,    3095,    3096,    3103,    3107,    3108,
    3112,    3119,    3123,    3124,    3131,    3132,    3136,    3143,    3144,    3151,
    3155,    3156,    3163,    3164,    3168,    3175,    3179,    3180,    3184,    3191,
    3192,    3199,    3203,    3204,    3208,    3215,    3219,    3220,    3227,    3228,
    3232,    3239,    3243,    3244,    3248,    3255,    3256,    3263,    3267,    3268,
    3275,    3276,    3280,    3287,    3288,    3295,    3299,    3300,    3304,    3311,
    3315,    3316,    3323,    3324,    3328,    3335,    3339,    3340,    3344,    3351,
    3352,    3359,    3363,    3364,    3368,    3375,    3379,    3380,    3387,    3388,
    3392,    3399,    3400,    3407,    3411,    3412,    3419,    3420,    3424,    3431,
    3435,    3436,    3440,    3447,    3448,    3455,    3459,    3460,    3464,    3471,
    3475,    3476,    3483,    3484,    3488,    3495,    3499,    3500,    3504,    3511,
    3512,    3519,    3523,    3524,    3531,    3532,    3536,    3543,    3544,    3551,
    3555,    3556,    3560,    3567,    3571,    3572,    3579,    3580,    3584,    3591,
    3595,    3596,    3600,    3607,    3608,    3615,    3619,    3620,    3624,    3631,
    3635,    3636,    3643,    3644,    3648,    3655,    3656,    3663,    3667,    3668,
    3675,    3676,    3680,    3687,    3691,    3692,    3696,    3703,    3704,    3711,
    3715,    3716,    6875,    6876,    6880,    6887,    6888,    6895,    6899,    6900,
** ... 19 like lines cut
*ELSET, ELSET=SS7_E4
    2953,    2956,    2960,    2965,    2968,    2973,    2977,    2980,    2984,    2989,
    2993,    2996,    3001,    3004,    3008,    3013,    3016,    3021,    3025,    3028,
    3033,    3036,    3040,    3045,    3049,    3052,    3056,    3061,    3064,    3069,
    3073,    3076,    3080,    3085,    3089,    3092,    3097,    3100,    3104,    3109,
    3113,    3116,    3120,    3125,    3128,    3133,    3137,    3140,    3145,    3148,
    3152,    3157,    3160,    3165,    3169,    3172,    3176,    3181,    3185,    3188,
    3193,    3196,    3200,    3205,    3209,    3212,    3216,    3221,    3224,    3229,
    3233,    3236,    3240,    3245,    3249,    3252,    3257,    3260,    3264,    3269,
    3272,    3277,    3281,    3284,    3289,    3292,    3296,    3301,    3305,    3308,
    3312,    3317,    3320,    3325,    3329,    3332,    3336,    3341,    3345,    3348,
    3353,    3356,    3360,    3365,    3369,    3372,    3376,    3381,    3384,    3389,
    3393,    3396,    3401,    3404,    3408,    3413,    3416,    3421,    3425,    3428,
    3432,    3437,    3441,    3444,    3449,    3452,    3456,    3461,    3465,    3468,
    3472,    3477,    3480,    3485,    3489,    3492,    3496,    3501,    3505,    3508,
    3513,    3516,    3520,    3525,    3528,    3533,    3537,    3540,    3545,    3548,
    3552,    3557,    3561,    3564,    3568,    3573,    3576,    3581,    3585,    3588,
    3592,    3597,    3601,    3604,    3609,    3612,    3616,    3621,    3625,    3628,
    3632,    3637,    3640,    3645,    3649,    3652,    3657,    3660,    3664,    3669,
    3672,    3677,    3681,    3684,    3688,    3693,    3697,    3700,    3705,    3708,
    3712,    3717,    6872,    6877,    6881,    6884,    6889,    6892,    6896,    6901,
** ... 19 like lines cut
*SURFACE, NAME=SS7
SS7_E1, E1
SS7_E4, E4
**
********************************** P R O P E R T I E S ************************
*SHELL SECTION, ELSET=EB1, SECTION INTEGRATION=SIMPSON, MATERIAL=Default-Steel
1.000000e+00
**
*END PART
**
**
**
********************************** E N D   P A R T S **********************************
**
**
********************************** A S S E M B L Y ************************************
**
*ASSEMBLY, NAME=ASSEMBLY1
**
*INSTANCE, NAME=Part-Default_1, PART=Part-Default
*END INSTANCE
**
*END ASSEMBLY
**
**
**
*MATERIAL, NAME = Default-Steel
*ELASTIC, TYPE=ISOTROPIC
2.068000e+05, 2.900000e-01
*DENSITY
7.000000e-06
*CONDUCTIVITY,TYPE=ISO
4.500000e-02
*SPECIFIC HEAT
5.000000e+02
**
**
************************************** H I S T O R Y *************************************
**
*PREPRINT
**
**************************************** S T E P 1 ***************************************
*STEP,INC=100,NAME=Default Set
**
*STATIC
1, 1, 1e-05, 1
**
**
**
**
*END STEP
