*HEADING
cubit(x/Writings/2017_QDES_DG/matlab/2d/seas/meshes/BP1_V16.inp): 04/17/2018: 08
version: 15.2
**
********************************** P A R T S **********************************
*PART, NAME=Part-Default
**
********************************** N O D E S **********************************
*NODE, NSET=ALLNODES
       1,   -3.548219e+01,   -1.325476e+01,    0.000000e+00
       2,   -2.889215e+01,   -1.333256e+01,    0.000000e+00
       3,   -2.876309e+01,   -6.687121e+00,    0.000000e+00
       4,   -3.428571e+01,    0.000000e+00,    0.000000e+00
       5,   -2.285714e+01,    0.000000e+00,    0.000000e+00
       6,   -2.311141e+01,   -6.728800e+00,    0.000000e+00
       7,   -2.297821e+01,   -1.342919e+01,    0.000000e+00
       8,   -2.407526e+01,   -2.665949e+01,    0.000000e+00
       9,   -2.330526e+01,   -2.005722e+01,    0.000000e+00
      10,   -2.833070e+01,   -1.994254e+01,    0.000000e+00
      11,   -3.279470e+01,   -2.643784e+01,    0.000000e+00
      12,   -1.142857e+01,   -8.000000e+01,    0.000000e+00
      13,   -1.270228e+01,   -6.825425e+01,    0.000000e+00
      14,   -2.203645e+01,   -6.556123e+01,    0.000000e+00
      15,   -2.285714e+01,   -8.000000e+01,    0.000000e+00
      16,   -3.518673e+01,   -3.926594e+01,    0.000000e+00
      17,   -2.875386e+01,   -3.953127e+01,    0.000000e+00
      18,   -2.828866e+01,   -3.307527e+01,    0.000000e+00
      19,   -2.331742e+01,   -3.325670e+01,    0.000000e+00
      20,   -2.303175e+01,   -3.987030e+01,    0.000000e+00
** ... 4091 like lines cut
**
********************************** E L E M E N T S ****************************
*ELEMENT, TYPE=S4R, ELSET=EB1
       1,       1,       2,       3,       4
       2,       5,       4,       3,       6
       3,       7,       6,       3,       2
       4,       8,       9,      10,      11
       5,       1,      11,      10,       2
       6,       7,       2,      10,       9
       7,      12,      13,      14,      15
       8,      16,      17,      18,      11
       9,       8,      11,      18,      19
      10,      20,      19,      18,      17
      11,      21,      22,      23,      24
      12,      16,      24,      23,      17
      13,      15,      14,      25,      26
      14,      14,      21,      24,      25
      15,      20,      17,      23,      22
      16,      13,      27,      28,      14
      17,      21,      14,      28,      29
      18,      30,      29,      28,      27
      19,      26,      25,      31,      32
      20,      25,      24,      33,      31
** ... 4060 like lines cut
**
********************************** S I D E S E T S **********************************
*ELSET, ELSET=SS2_E1
       2,      45,      94,     137,     151,     215,     337,     584,    1712,    2042,
    2043,    2044,    2045,    2046,    2047,    2117,    2120,    2130,    2174,    3755
*ELSET, ELSET=SS2_E2
      24,      30,      36,      42,    2047,    2054,    2061,    2068,    2075,    2082
*ELSET, ELSET=SS2_E3
      37,      38,      39,      40,      41,      42,    2079,    2080,    2081,    2082
*ELSET, ELSET=SS2_E4
       7,      13,      19,      25,      31,      37,      77,      81,      87,     134,
    1713,    2041,    2085,    2134,    2175,    2190,    2254,    2376,    2623,    3752
*SURFACE, NAME=SS2
SS2_E1, E1
SS2_E2, E2
SS2_E3, E3
SS2_E4, E4
*ELSET, ELSET=SS3_E1
      43,      81,      82,      89,    1843,    2119,    2125,    2183,    2573,    3012,
    3880,    3885
*ELSET, ELSET=SS3_E4
      79,      83,     144,     543,     985,    1840,    1858,    2083,    2120,    2122,
    2131,    3881
*SURFACE, NAME=SS3
SS3_E1, E1
SS3_E4, E4
*ELSET, ELSET=SS7_E1
    1072,    1079,    1083,    1084,    1091,    1092,    1096,    1103,    1107,    1108,
    1112,    1119,    1120,    1127,    1131,    1132,    1139,    1140,    1144,    1151,
    1152,    1159,    1163,    1164,    1168,    1175,    1179,    1180,    1187,    1188,
    1192,    1199,    1203,    1204,    1208,    1215,    1216,    1223,    1227,    1228,
    1232,    1239,    1243,    1244,    1251,    1252,    1256,    1263,    1264,    1271,
    1275,    1276,    1283,    1284,    1288,    1295,    1299,    1300,    1304,    1311,
    1312,    1319,    1323,    1324,    1328,    1335,    1339,    1340,    1347,    1348,
    1352,    1359,    1363,    1364,    1368,    1375,    1376,    1383,    1387,    1388,
    1395,    1396,    1400,    1407,    1408,    1415,    1419,    1420,    1424,    1431,
    1435,    1436,    1443,    1444,    1448,    1455,    1459,    1460,    1464,    1471,
    1472,    1479,    1483,    1484,    1488,    1495,    1499,    1500,    1507,    1508,
    1512,    1519,    1520,    1527,    1531,    1532,    1539,    1540,    1544,    1551,
    1555,    1556,    1560,    1567,    1568,    1575,    1579,    1580,    1584,    1591,
    1595,    1596,    1603,    1604,    1608,    1615,    1619,    1620,    1624,    1631,
    1632,    1639,    1643,    1644,    1651,    1652,    1656,    1663,    1664,    1671,
    1675,    1676,    1680,    1687,    1691,    1692,    1699,    1700,    1704,    1711,
    1715,    1716,    1720,    1727,    1728,    1735,    1739,    1740,    1744,    1751,
    1755,    1756,    1763,    1764,    1768,    1775,    1776,    1783,    1787,    1788,
    1795,    1796,    1800,    1807,    1811,    1812,    1816,    1823,    1824,    1831,
    1835,    1836,    3115,    3116,    3120,    3127,    3128,    3135,    3139,    3140,
** ... 19 like lines cut
*ELSET, ELSET=SS7_E4
    1073,    1076,    1080,    1085,    1088,    1093,    1097,    1100,    1104,    1109,
    1113,    1116,    1121,    1124,    1128,    1133,    1136,    1141,    1145,    1148,
    1153,    1156,    1160,    1165,    1169,    1172,    1176,    1181,    1184,    1189,
    1193,    1196,    1200,    1205,    1209,    1212,    1217,    1220,    1224,    1229,
    1233,    1236,    1240,    1245,    1248,    1253,    1257,    1260,    1265,    1268,
    1272,    1277,    1280,    1285,    1289,    1292,    1296,    1301,    1305,    1308,
    1313,    1316,    1320,    1325,    1329,    1332,    1336,    1341,    1344,    1349,
    1353,    1356,    1360,    1365,    1369,    1372,    1377,    1380,    1384,    1389,
    1392,    1397,    1401,    1404,    1409,    1412,    1416,    1421,    1425,    1428,
    1432,    1437,    1440,    1445,    1449,    1452,    1456,    1461,    1465,    1468,
    1473,    1476,    1480,    1485,    1489,    1492,    1496,    1501,    1504,    1509,
    1513,    1516,    1521,    1524,    1528,    1533,    1536,    1541,    1545,    1548,
    1552,    1557,    1561,    1564,    1569,    1572,    1576,    1581,    1585,    1588,
    1592,    1597,    1600,    1605,    1609,    1612,    1616,    1621,    1625,    1628,
    1633,    1636,    1640,    1645,    1648,    1653,    1657,    1660,    1665,    1668,
    1672,    1677,    1681,    1684,    1688,    1693,    1696,    1701,    1705,    1708,
    1712,    1717,    1721,    1724,    1729,    1732,    1736,    1741,    1745,    1748,
    1752,    1757,    1760,    1765,    1769,    1772,    1777,    1780,    1784,    1789,
    1792,    1797,    1801,    1804,    1808,    1813,    1817,    1820,    1825,    1828,
    1832,    1837,    3112,    3117,    3121,    3124,    3129,    3132,    3136,    3141,
** ... 19 like lines cut
*SURFACE, NAME=SS7
SS7_E1, E1
SS7_E4, E4
**
********************************** P R O P E R T I E S ************************
*SHELL SECTION, ELSET=EB1, SECTION INTEGRATION=SIMPSON, MATERIAL=Default-Steel
1.000000e+00
**
*END PART
**
**
**
********************************** E N D   P A R T S **********************************
**
**
********************************** A S S E M B L Y ************************************
**
*ASSEMBLY, NAME=ASSEMBLY1
**
*INSTANCE, NAME=Part-Default_1, PART=Part-Default
*END INSTANCE
**
*END ASSEMBLY
**
**
**
*MATERIAL, NAME = Default-Steel
*ELASTIC, TYPE=ISOTROPIC
2.068000e+05, 2.900000e-01
*DENSITY
7.000000e-06
*CONDUCTIVITY,TYPE=ISO
4.500000e-02
*SPECIFIC HEAT
5.000000e+02
**
**
************************************** H I S T O R Y *************************************
**
*PREPRINT
**
**************************************** S T E P 1 ***************************************
*STEP,INC=100,NAME=Default Set
**
*STATIC
1, 1, 1e-05, 1
**
**
**
**
*END STEP
