*HEADING
cubit(ox/Writings/2017_QDES_DG/matlab/2d/seas/meshes/BP1_V8.inp): 04/05/2018: 16
version: 15.2
**
********************************** P A R T S **********************************
*PART, NAME=Part-Default
**
********************************** N O D E S **********************************
*NODE, NSET=ALLNODES
       1,    0.000000e+00,   -4.000000e+02,    0.000000e+00
       2,    0.000000e+00,   -3.880000e+02,    0.000000e+00
       3,   -1.212121e+01,   -3.879963e+02,    0.000000e+00
       4,   -1.212121e+01,   -4.000000e+02,    0.000000e+00
       5,    0.000000e+00,   -3.760000e+02,    0.000000e+00
       6,   -1.212121e+01,   -3.759927e+02,    0.000000e+00
       7,    0.000000e+00,   -3.640000e+02,    0.000000e+00
       8,   -1.212121e+01,   -3.639890e+02,    0.000000e+00
       9,    0.000000e+00,   -3.520000e+02,    0.000000e+00
      10,   -1.212121e+01,   -3.519853e+02,    0.000000e+00
      11,    0.000000e+00,   -3.400000e+02,    0.000000e+00
      12,   -1.212121e+01,   -3.399816e+02,    0.000000e+00
      13,    0.000000e+00,   -3.280000e+02,    0.000000e+00
      14,   -1.212121e+01,   -3.279780e+02,    0.000000e+00
      15,    0.000000e+00,   -3.160000e+02,    0.000000e+00
      16,   -1.212121e+01,   -3.159743e+02,    0.000000e+00
      17,    0.000000e+00,   -3.040000e+02,    0.000000e+00
      18,   -1.212121e+01,   -3.039706e+02,    0.000000e+00
      19,    0.000000e+00,   -2.920000e+02,    0.000000e+00
      20,   -1.212121e+01,   -2.919669e+02,    0.000000e+00
** ... 6264 like lines cut
**
********************************** E L E M E N T S ****************************
*ELEMENT, TYPE=S4R, ELSET=EB1
       1,       1,       2,       3,       4
       2,       2,       5,       6,       3
       3,       5,       7,       8,       6
       4,       7,       9,      10,       8
       5,       9,      11,      12,      10
       6,      11,      13,      14,      12
       7,      13,      15,      16,      14
       8,      15,      17,      18,      16
       9,      17,      19,      20,      18
      10,      19,      21,      22,      20
      11,      21,      23,      24,      22
      12,      23,      25,      26,      24
      13,      25,      27,      28,      26
      14,      27,      29,      30,      28
      15,      29,      31,      32,      30
      16,      31,      33,      34,      32
      17,      33,      35,      36,      34
      18,      35,      37,      38,      36
      19,      37,      39,      40,      38
      20,      39,      41,      42,      40
** ... 6154 like lines cut
**
********************************** S I D E S E T S **********************************
*ELSET, ELSET=SS1_E2
    3120,    3153,    3186,    3219,    3252,    3285,    3318,    3351,    3384,    3417,
    3450,    3483,    3516,    3549,    3582,    3615,    3648,    3681,    3714,    3747,
    3780,    3813,    3846,    3879,    3912,    3945,    3978,    4011,    4044,    4077,
    4110,    4143,    4176
*ELSET, ELSET=SS1_E3
    1057,    1058,    1059,    1060,    1061,    1062,    1063,    1064,    1065,    1066,
    1067,    1068,    1069,    1070,    1071,    1072,    1073,    1074,    1075,    1076,
    1077,    1078,    1079,    1080,    1081,    1082,    1083,    1084,    1085,    1086,
    1087,    1088,    1089
*SURFACE, NAME=SS1
SS1_E2, E2
SS1_E3, E3
*ELSET, ELSET=SS2_E1
      29,    1092,    1141,    1184,    1198,    1262,    1384,    1631,    2759,    3088,
    3089,    3090,    3091,    3092,    3093,    3094,    3095,    3096,    3097,    3098,
    3099,    3100,    3101,    3102,    3103,    3104,    3105,    3106,    3107,    3108,
    3109,    3110,    3111,    3112,    3113,    3114,    3115,    3116,    3117,    3118,
    3119,    3120,    4211,    4224,    4268,    5849
*ELSET, ELSET=SS2_E2
     132,     165,     198,     231,     264,     297,     330,     363,     396,     429,
     462,     495,     528,     561,     594,     627,     660,     693,     726,     759,
     792,     825,     858,     891,     924,     957,     990,    1023,    1056,    1089
*ELSET, ELSET=SS2_E3
    4147,    4148,    4149,    4150,    4151,    4152,    4153,    4154,    4155,    4156,
    4157,    4158,    4159,    4160,    4161,    4162,    4163,    4164,    4165,    4166,
    4167,    4168,    4169,    4170,    4171,    4172,    4173,    4174,    4175,    4176
*ELSET, ELSET=SS2_E4
       1,      34,      67,     100,     133,     166,     199,     232,     265,     298,
     331,     364,     397,     430,     463,     496,     529,     562,     595,     628,
     661,     694,     727,     760,     793,     826,     859,     892,     925,     958,
     991,    1024,    1057,    1124,    1134,    1181,    2760,    3979,    4179,    4228,
    4269,    4284,    4348,    4470,    4717,    5846
*SURFACE, NAME=SS2
SS2_E1, E1
SS2_E2, E2
SS2_E3, E3
SS2_E4, E4
*ELSET, ELSET=SS3_E1
       1,       2,       3,       4,       5,       6,       7,       8,       9,      10,
      11,      12,      13,      14,      15,      16,      17,      18,      19,      20,
      21,      22,      23,      24,      25,      26,      27,    1090,    1128,    1129,
    1136,    2890,    4213,    4219,    4277,    4667,    5106,    5974,    5979
*ELSET, ELSET=SS3_E4
    1126,    1130,    1191,    1590,    2032,    2887,    2905,    3088,    3121,    3154,
    3187,    3220,    3253,    3286,    3319,    3352,    3385,    3418,    3451,    3484,
    3517,    3550,    3583,    3616,    3649,    3682,    3715,    3748,    3781,    3814,
    3847,    3880,    3913,    3946,    4177,    4214,    4216,    4225,    5975
*SURFACE, NAME=SS3
SS3_E1, E1
SS3_E4, E4
*ELSET, ELSET=SS7_E1
    2119,    2126,    2130,    2131,    2138,    2139,    2143,    2150,    2154,    2155,
    2159,    2166,    2167,    2174,    2178,    2179,    2186,    2187,    2191,    2198,
    2199,    2206,    2210,    2211,    2215,    2222,    2226,    2227,    2234,    2235,
    2239,    2246,    2250,    2251,    2255,    2262,    2263,    2270,    2274,    2275,
    2279,    2286,    2290,    2291,    2298,    2299,    2303,    2310,    2311,    2318,
    2322,    2323,    2330,    2331,    2335,    2342,    2346,    2347,    2351,    2358,
    2359,    2366,    2370,    2371,    2375,    2382,    2386,    2387,    2394,    2395,
    2399,    2406,    2410,    2411,    2415,    2422,    2423,    2430,    2434,    2435,
    2442,    2443,    2447,    2454,    2455,    2462,    2466,    2467,    2471,    2478,
    2482,    2483,    2490,    2491,    2495,    2502,    2506,    2507,    2511,    2518,
    2519,    2526,    2530,    2531,    2535,    2542,    2546,    2547,    2554,    2555,
    2559,    2566,    2567,    2574,    2578,    2579,    2586,    2587,    2591,    2598,
    2602,    2603,    2607,    2614,    2615,    2622,    2626,    2627,    2631,    2638,
    2642,    2643,    2650,    2651,    2655,    2662,    2666,    2667,    2671,    2678,
    2679,    2686,    2690,    2691,    2698,    2699,    2703,    2710,    2711,    2718,
    2722,    2723,    2727,    2734,    2738,    2739,    2746,    2747,    2751,    2758,
    2762,    2763,    2767,    2774,    2775,    2782,    2786,    2787,    2791,    2798,
    2802,    2803,    2810,    2811,    2815,    2822,    2823,    2830,    2834,    2835,
    2842,    2843,    2847,    2854,    2858,    2859,    2863,    2870,    2871,    2878,
    2882,    2883,    5209,    5210,    5214,    5221,    5222,    5229,    5233,    5234,
** ... 19 like lines cut
*ELSET, ELSET=SS7_E4
    2120,    2123,    2127,    2132,    2135,    2140,    2144,    2147,    2151,    2156,
    2160,    2163,    2168,    2171,    2175,    2180,    2183,    2188,    2192,    2195,
    2200,    2203,    2207,    2212,    2216,    2219,    2223,    2228,    2231,    2236,
    2240,    2243,    2247,    2252,    2256,    2259,    2264,    2267,    2271,    2276,
    2280,    2283,    2287,    2292,    2295,    2300,    2304,    2307,    2312,    2315,
    2319,    2324,    2327,    2332,    2336,    2339,    2343,    2348,    2352,    2355,
    2360,    2363,    2367,    2372,    2376,    2379,    2383,    2388,    2391,    2396,
    2400,    2403,    2407,    2412,    2416,    2419,    2424,    2427,    2431,    2436,
    2439,    2444,    2448,    2451,    2456,    2459,    2463,    2468,    2472,    2475,
    2479,    2484,    2487,    2492,    2496,    2499,    2503,    2508,    2512,    2515,
    2520,    2523,    2527,    2532,    2536,    2539,    2543,    2548,    2551,    2556,
    2560,    2563,    2568,    2571,    2575,    2580,    2583,    2588,    2592,    2595,
    2599,    2604,    2608,    2611,    2616,    2619,    2623,    2628,    2632,    2635,
    2639,    2644,    2647,    2652,    2656,    2659,    2663,    2668,    2672,    2675,
    2680,    2683,    2687,    2692,    2695,    2700,    2704,    2707,    2712,    2715,
    2719,    2724,    2728,    2731,    2735,    2740,    2743,    2748,    2752,    2755,
    2759,    2764,    2768,    2771,    2776,    2779,    2783,    2788,    2792,    2795,
    2799,    2804,    2807,    2812,    2816,    2819,    2824,    2827,    2831,    2836,
    2839,    2844,    2848,    2851,    2855,    2860,    2864,    2867,    2872,    2875,
    2879,    2884,    5206,    5211,    5215,    5218,    5223,    5226,    5230,    5235,
** ... 19 like lines cut
*SURFACE, NAME=SS7
SS7_E1, E1
SS7_E4, E4
**
********************************** P R O P E R T I E S ************************
*SHELL SECTION, ELSET=EB1, SECTION INTEGRATION=SIMPSON, MATERIAL=Default-Steel
1.000000e+00
**
*END PART
**
**
**
********************************** E N D   P A R T S **********************************
**
**
********************************** A S S E M B L Y ************************************
**
*ASSEMBLY, NAME=ASSEMBLY1
**
*INSTANCE, NAME=Part-Default_1, PART=Part-Default
*END INSTANCE
**
*END ASSEMBLY
**
**
**
*MATERIAL, NAME = Default-Steel
*ELASTIC, TYPE=ISOTROPIC
2.068000e+05, 2.900000e-01
*DENSITY
7.000000e-06
*CONDUCTIVITY,TYPE=ISO
4.500000e-02
*SPECIFIC HEAT
5.000000e+02
**
**
************************************** H I S T O R Y *************************************
**
*PREPRINT
**
**************************************** S T E P 1 ***************************************
*STEP,INC=100,NAME=Default Set
**
*STATIC
1, 1, 1e-05, 1
**
**
**
**
*END STEP
