*HEADING
cubit(x/Writings/2017_QDES_DG/matlab/2d/seas/meshes/BP1_V10.inp): 04/06/2018: 13
version: 15.2
**
********************************** P A R T S **********************************
*PART, NAME=Part-Default
**
********************************** N O D E S **********************************
*NODE, NSET=ALLNODES
       1,    0.000000e+00,   -2.000000e+02,    0.000000e+00
       2,   -4.895219e+01,   -2.048049e+02,    0.000000e+00
       3,   -4.806511e+01,   -2.517237e+02,    0.000000e+00
       4,    0.000000e+00,   -3.000000e+02,    0.000000e+00
       5,   -9.350801e+01,   -3.099243e+02,    0.000000e+00
       6,   -9.520448e+01,   -2.503279e+02,    0.000000e+00
       7,   -3.000000e+02,    0.000000e+00,    0.000000e+00
       8,   -4.000000e+02,    0.000000e+00,    0.000000e+00
       9,   -4.011937e+02,   -9.574117e+01,    0.000000e+00
      10,   -3.099243e+02,   -9.350801e+01,    0.000000e+00
      11,   -5.000000e+02,    0.000000e+00,    0.000000e+00
      12,   -4.995539e+02,   -9.752435e+01,    0.000000e+00
      13,   -6.000000e+02,    0.000000e+00,    0.000000e+00
      14,   -5.994545e+02,   -9.861885e+01,    0.000000e+00
      15,   -7.000000e+02,    0.000000e+00,    0.000000e+00
      16,   -6.996403e+02,   -9.927775e+01,    0.000000e+00
      17,   -8.000000e+02,    0.000000e+00,    0.000000e+00
      18,   -7.998476e+02,   -9.970734e+01,    0.000000e+00
      19,   -9.000000e+02,    0.000000e+00,    0.000000e+00
      20,   -9.000031e+02,   -1.000000e+02,    0.000000e+00
** ... 4543 like lines cut
**
********************************** E L E M E N T S ****************************
*ELEMENT, TYPE=S4R, ELSET=EB1
       1,       1,       2,       3,       4
       2,       5,       4,       3,       6
       3,       7,       8,       9,      10
       4,       8,      11,      12,       9
       5,      11,      13,      14,      12
       6,      13,      15,      16,      14
       7,      15,      17,      18,      16
       8,      17,      19,      20,      18
       9,      19,      21,      22,      20
      10,      23,       6,       3,       2
      11,       5,       6,      24,      25
      12,      10,       9,      26,      27
      13,       9,      12,      28,      26
      14,      12,      14,      29,      28
      15,      14,      16,      30,      29
      16,      16,      18,      31,      30
      17,      18,      20,      32,      31
      18,      20,      22,      33,      32
      19,      34,      25,      24,      35
      20,      34,      27,      36,      25
** ... 4492 like lines cut
**
********************************** S I D E S E T S **********************************
*ELSET, ELSET=SS1_E1
    2347
*ELSET, ELSET=SS1_E2
       9,      18,      27,      36,      45,      54,      63,      72,      81,      90
*ELSET, ELSET=SS1_E3
    2338,    2339,    2340,    2341,    2342,    2343,    2344,    2345,    2346
*SURFACE, NAME=SS1
SS1_E1, E1
SS1_E2, E2
SS1_E3, E3
*ELSET, ELSET=SS2_E1
       3,       4,       5,       6,       7,       8,       9,      91,     113,     138,
     146,     183,     198,     261,     310,     353,     367,     431,     553,     800,
    1928,    2425,    2549,    2562,    2606,    4187
*ELSET, ELSET=SS2_E2
     226,     234,     242,     250,     258,    2265,    2274,    2283,    2292,    2301,
    2310,    2319,    2328,    2337,    2346,    2347,    2348,    2349,    2350,    2351,
    2352,    2353
*ELSET, ELSET=SS2_E3
      82,      83,      84,      85,      86,      87,      88,      89,      90,    2510,
    2511,    2512,    2513,    2514
*ELSET, ELSET=SS2_E4
     147,     293,     303,     350,    1929,    2257,    2356,    2373,    2422,    2467,
    2517,    2566,    2607,    2622,    2686,    2808,    3055,    4184
*SURFACE, NAME=SS2
SS2_E1, E1
SS2_E2, E2
SS2_E3, E3
SS2_E4, E4
*ELSET, ELSET=SS3_E1
     169,     195,     196,     259,     297,     298,     305,    2059,    2259,    2260,
    2261,    2262,    2263,    2264,    2265,    2369,    2394,    2402,    2439,    2551,
    2557,    2615,    3005,    3444,    4312,    4317
*ELSET, ELSET=SS3_E2
      91,      92,      93,      94,      95,      96,      97
*ELSET, ELSET=SS3_E4
       1,     100,     117,     166,     295,     299,     360,     759,    1201,    2056,
    2074,    2403,    2451,    2459,    2515,    2552,    2554,    2563,    4313
*SURFACE, NAME=SS3
SS3_E1, E1
SS3_E2, E2
SS3_E4, E4
*ELSET, ELSET=SS7_E1
    1288,    1295,    1299,    1300,    1307,    1308,    1312,    1319,    1323,    1324,
    1328,    1335,    1336,    1343,    1347,    1348,    1355,    1356,    1360,    1367,
    1368,    1375,    1379,    1380,    1384,    1391,    1395,    1396,    1403,    1404,
    1408,    1415,    1419,    1420,    1424,    1431,    1432,    1439,    1443,    1444,
    1448,    1455,    1459,    1460,    1467,    1468,    1472,    1479,    1480,    1487,
    1491,    1492,    1499,    1500,    1504,    1511,    1515,    1516,    1520,    1527,
    1528,    1535,    1539,    1540,    1544,    1551,    1555,    1556,    1563,    1564,
    1568,    1575,    1579,    1580,    1584,    1591,    1592,    1599,    1603,    1604,
    1611,    1612,    1616,    1623,    1624,    1631,    1635,    1636,    1640,    1647,
    1651,    1652,    1659,    1660,    1664,    1671,    1675,    1676,    1680,    1687,
    1688,    1695,    1699,    1700,    1704,    1711,    1715,    1716,    1723,    1724,
    1728,    1735,    1736,    1743,    1747,    1748,    1755,    1756,    1760,    1767,
    1771,    1772,    1776,    1783,    1784,    1791,    1795,    1796,    1800,    1807,
    1811,    1812,    1819,    1820,    1824,    1831,    1835,    1836,    1840,    1847,
    1848,    1855,    1859,    1860,    1867,    1868,    1872,    1879,    1880,    1887,
    1891,    1892,    1896,    1903,    1907,    1908,    1915,    1916,    1920,    1927,
    1931,    1932,    1936,    1943,    1944,    1951,    1955,    1956,    1960,    1967,
    1971,    1972,    1979,    1980,    1984,    1991,    1992,    1999,    2003,    2004,
    2011,    2012,    2016,    2023,    2027,    2028,    2032,    2039,    2040,    2047,
    2051,    2052,    3547,    3548,    3552,    3559,    3560,    3567,    3571,    3572,
** ... 19 like lines cut
*ELSET, ELSET=SS7_E4
    1289,    1292,    1296,    1301,    1304,    1309,    1313,    1316,    1320,    1325,
    1329,    1332,    1337,    1340,    1344,    1349,    1352,    1357,    1361,    1364,
    1369,    1372,    1376,    1381,    1385,    1388,    1392,    1397,    1400,    1405,
    1409,    1412,    1416,    1421,    1425,    1428,    1433,    1436,    1440,    1445,
    1449,    1452,    1456,    1461,    1464,    1469,    1473,    1476,    1481,    1484,
    1488,    1493,    1496,    1501,    1505,    1508,    1512,    1517,    1521,    1524,
    1529,    1532,    1536,    1541,    1545,    1548,    1552,    1557,    1560,    1565,
    1569,    1572,    1576,    1581,    1585,    1588,    1593,    1596,    1600,    1605,
    1608,    1613,    1617,    1620,    1625,    1628,    1632,    1637,    1641,    1644,
    1648,    1653,    1656,    1661,    1665,    1668,    1672,    1677,    1681,    1684,
    1689,    1692,    1696,    1701,    1705,    1708,    1712,    1717,    1720,    1725,
    1729,    1732,    1737,    1740,    1744,    1749,    1752,    1757,    1761,    1764,
    1768,    1773,    1777,    1780,    1785,    1788,    1792,    1797,    1801,    1804,
    1808,    1813,    1816,    1821,    1825,    1828,    1832,    1837,    1841,    1844,
    1849,    1852,    1856,    1861,    1864,    1869,    1873,    1876,    1881,    1884,
    1888,    1893,    1897,    1900,    1904,    1909,    1912,    1917,    1921,    1924,
    1928,    1933,    1937,    1940,    1945,    1948,    1952,    1957,    1961,    1964,
    1968,    1973,    1976,    1981,    1985,    1988,    1993,    1996,    2000,    2005,
    2008,    2013,    2017,    2020,    2024,    2029,    2033,    2036,    2041,    2044,
    2048,    2053,    3544,    3549,    3553,    3556,    3561,    3564,    3568,    3573,
** ... 19 like lines cut
*SURFACE, NAME=SS7
SS7_E1, E1
SS7_E4, E4
**
********************************** P R O P E R T I E S ************************
*SHELL SECTION, ELSET=EB1, SECTION INTEGRATION=SIMPSON, MATERIAL=Default-Steel
1.000000e+00
**
*END PART
**
**
**
********************************** E N D   P A R T S **********************************
**
**
********************************** A S S E M B L Y ************************************
**
*ASSEMBLY, NAME=ASSEMBLY1
**
*INSTANCE, NAME=Part-Default_1, PART=Part-Default
*END INSTANCE
**
*END ASSEMBLY
**
**
**
*MATERIAL, NAME = Default-Steel
*ELASTIC, TYPE=ISOTROPIC
2.068000e+05, 2.900000e-01
*DENSITY
7.000000e-06
*CONDUCTIVITY,TYPE=ISO
4.500000e-02
*SPECIFIC HEAT
5.000000e+02
**
**
************************************** H I S T O R Y *************************************
**
*PREPRINT
**
**************************************** S T E P 1 ***************************************
*STEP,INC=100,NAME=Default Set
**
*STATIC
1, 1, 1e-05, 1
**
**
**
**
*END STEP
