*HEADING
cubit(ox/Writings/2017_QDES_DG/matlab/2d/seas/meshes/BP1_V9.inp): 04/06/2018: 13
version: 15.2
**
********************************** P A R T S **********************************
*PART, NAME=Part-Default
**
********************************** N O D E S **********************************
*NODE, NSET=ALLNODES
       1,    0.000000e+00,   -2.000000e+02,    0.000000e+00
       2,   -4.934354e+01,   -2.050470e+02,    0.000000e+00
       3,   -4.873090e+01,   -2.520714e+02,    0.000000e+00
       4,    0.000000e+00,   -3.000000e+02,    0.000000e+00
       5,   -9.600701e+01,   -3.105577e+02,    0.000000e+00
       6,   -9.683635e+01,   -2.511570e+02,    0.000000e+00
       7,   -3.000000e+02,    0.000000e+00,    0.000000e+00
       8,   -4.000000e+02,    0.000000e+00,    0.000000e+00
       9,   -4.000000e+02,   -1.000000e+02,    0.000000e+00
      10,   -3.105577e+02,   -9.600701e+01,    0.000000e+00
      11,   -9.858710e+01,   -1.930751e+02,    0.000000e+00
      12,   -1.440097e+02,   -2.489139e+02,    0.000000e+00
      13,   -1.871475e+02,   -2.910381e+02,    0.000000e+00
      14,   -4.000000e+02,   -2.000000e+02,    0.000000e+00
      15,   -2.910381e+02,   -1.871475e+02,    0.000000e+00
      16,   -2.011231e+02,   -2.011231e+02,    0.000000e+00
      17,   -1.480325e+02,   -2.045345e+02,    0.000000e+00
      18,   -2.945548e+02,   -2.945548e+02,    0.000000e+00
      19,   -4.000000e+02,   -3.000000e+02,    0.000000e+00
      20,   -2.000000e+02,   -4.000000e+02,    0.000000e+00
** ... 4357 like lines cut
**
********************************** E L E M E N T S ****************************
*ELEMENT, TYPE=S4R, ELSET=EB1
       1,       1,       2,       3,       4
       2,       5,       4,       3,       6
       3,       7,       8,       9,      10
       4,      11,       6,       3,       2
       5,       5,       6,      12,      13
       6,      10,       9,      14,      15
       7,      16,      13,      12,      17
       8,      16,      15,      18,      13
       9,      15,      14,      19,      18
      10,       5,      13,      20,      21
      11,      13,      18,      22,      20
      12,      18,      19,      23,      22
      13,      21,      24,       4,       5
      14,      11,      17,      12,       6
      15,      16,      25,      26,      15
      16,      27,      28,      29,       1
      17,       2,       1,      29,      30
      18,      31,      30,      29,      28
      19,       2,      30,      32,      11
      20,      33,      11,      32,      34
** ... 4324 like lines cut
**
********************************** S I D E S E T S **********************************
*ELSET, ELSET=SS1_E1
    2185
*ELSET, ELSET=SS1_E2
       3,       6,       9,      12
*ELSET, ELSET=SS1_E3
    2182,    2183,    2184
*SURFACE, NAME=SS1
SS1_E1, E1
SS1_E2, E2
SS1_E3, E3
*ELSET, ELSET=SS2_E1
       3,      13,      29,      54,      62,      99,     114,     177,     226,     269,
     283,     347,     469,     716,    1844,    2257,    2381,    2394,    2438,    4019
*ELSET, ELSET=SS2_E2
     142,     150,     158,     166,     174,    2175,    2178,    2181,    2184,    2185
*ELSET, ELSET=SS2_E3
      10,      11,      12,    2342,    2343,    2344,    2345,    2346
*ELSET, ELSET=SS2_E4
      63,     209,     219,     266,    1845,    2173,    2188,    2205,    2254,    2299,
    2349,    2398,    2439,    2454,    2518,    2640,    2887,    4016
*SURFACE, NAME=SS2
SS2_E1, E1
SS2_E2, E2
SS2_E3, E3
SS2_E4, E4
*ELSET, ELSET=SS3_E1
      85,     111,     112,     175,     213,     214,     221,    1975,    2175,    2201,
    2226,    2234,    2271,    2383,    2389,    2447,    2837,    3276,    4144,    4149
*ELSET, ELSET=SS3_E2
      13
*ELSET, ELSET=SS3_E4
       1,      16,      33,      82,     211,     215,     276,     675,    1117,    1972,
    1990,    2235,    2283,    2291,    2347,    2384,    2386,    2395,    4145
*SURFACE, NAME=SS3
SS3_E1, E1
SS3_E2, E2
SS3_E4, E4
*ELSET, ELSET=SS7_E1
    1204,    1211,    1215,    1216,    1223,    1224,    1228,    1235,    1239,    1240,
    1244,    1251,    1252,    1259,    1263,    1264,    1271,    1272,    1276,    1283,
    1284,    1291,    1295,    1296,    1300,    1307,    1311,    1312,    1319,    1320,
    1324,    1331,    1335,    1336,    1340,    1347,    1348,    1355,    1359,    1360,
    1364,    1371,    1375,    1376,    1383,    1384,    1388,    1395,    1396,    1403,
    1407,    1408,    1415,    1416,    1420,    1427,    1431,    1432,    1436,    1443,
    1444,    1451,    1455,    1456,    1460,    1467,    1471,    1472,    1479,    1480,
    1484,    1491,    1495,    1496,    1500,    1507,    1508,    1515,    1519,    1520,
    1527,    1528,    1532,    1539,    1540,    1547,    1551,    1552,    1556,    1563,
    1567,    1568,    1575,    1576,    1580,    1587,    1591,    1592,    1596,    1603,
    1604,    1611,    1615,    1616,    1620,    1627,    1631,    1632,    1639,    1640,
    1644,    1651,    1652,    1659,    1663,    1664,    1671,    1672,    1676,    1683,
    1687,    1688,    1692,    1699,    1700,    1707,    1711,    1712,    1716,    1723,
    1727,    1728,    1735,    1736,    1740,    1747,    1751,    1752,    1756,    1763,
    1764,    1771,    1775,    1776,    1783,    1784,    1788,    1795,    1796,    1803,
    1807,    1808,    1812,    1819,    1823,    1824,    1831,    1832,    1836,    1843,
    1847,    1848,    1852,    1859,    1860,    1867,    1871,    1872,    1876,    1883,
    1887,    1888,    1895,    1896,    1900,    1907,    1908,    1915,    1919,    1920,
    1927,    1928,    1932,    1939,    1943,    1944,    1948,    1955,    1956,    1963,
    1967,    1968,    3379,    3380,    3384,    3391,    3392,    3399,    3403,    3404,
** ... 19 like lines cut
*ELSET, ELSET=SS7_E4
    1205,    1208,    1212,    1217,    1220,    1225,    1229,    1232,    1236,    1241,
    1245,    1248,    1253,    1256,    1260,    1265,    1268,    1273,    1277,    1280,
    1285,    1288,    1292,    1297,    1301,    1304,    1308,    1313,    1316,    1321,
    1325,    1328,    1332,    1337,    1341,    1344,    1349,    1352,    1356,    1361,
    1365,    1368,    1372,    1377,    1380,    1385,    1389,    1392,    1397,    1400,
    1404,    1409,    1412,    1417,    1421,    1424,    1428,    1433,    1437,    1440,
    1445,    1448,    1452,    1457,    1461,    1464,    1468,    1473,    1476,    1481,
    1485,    1488,    1492,    1497,    1501,    1504,    1509,    1512,    1516,    1521,
    1524,    1529,    1533,    1536,    1541,    1544,    1548,    1553,    1557,    1560,
    1564,    1569,    1572,    1577,    1581,    1584,    1588,    1593,    1597,    1600,
    1605,    1608,    1612,    1617,    1621,    1624,    1628,    1633,    1636,    1641,
    1645,    1648,    1653,    1656,    1660,    1665,    1668,    1673,    1677,    1680,
    1684,    1689,    1693,    1696,    1701,    1704,    1708,    1713,    1717,    1720,
    1724,    1729,    1732,    1737,    1741,    1744,    1748,    1753,    1757,    1760,
    1765,    1768,    1772,    1777,    1780,    1785,    1789,    1792,    1797,    1800,
    1804,    1809,    1813,    1816,    1820,    1825,    1828,    1833,    1837,    1840,
    1844,    1849,    1853,    1856,    1861,    1864,    1868,    1873,    1877,    1880,
    1884,    1889,    1892,    1897,    1901,    1904,    1909,    1912,    1916,    1921,
    1924,    1929,    1933,    1936,    1940,    1945,    1949,    1952,    1957,    1960,
    1964,    1969,    3376,    3381,    3385,    3388,    3393,    3396,    3400,    3405,
** ... 19 like lines cut
*SURFACE, NAME=SS7
SS7_E1, E1
SS7_E4, E4
**
********************************** P R O P E R T I E S ************************
*SHELL SECTION, ELSET=EB1, SECTION INTEGRATION=SIMPSON, MATERIAL=Default-Steel
1.000000e+00
**
*END PART
**
**
**
********************************** E N D   P A R T S **********************************
**
**
********************************** A S S E M B L Y ************************************
**
*ASSEMBLY, NAME=ASSEMBLY1
**
*INSTANCE, NAME=Part-Default_1, PART=Part-Default
*END INSTANCE
**
*END ASSEMBLY
**
**
**
*MATERIAL, NAME = Default-Steel
*ELASTIC, TYPE=ISOTROPIC
2.068000e+05, 2.900000e-01
*DENSITY
7.000000e-06
*CONDUCTIVITY,TYPE=ISO
4.500000e-02
*SPECIFIC HEAT
5.000000e+02
**
**
************************************** H I S T O R Y *************************************
**
*PREPRINT
**
**************************************** S T E P 1 ***************************************
*STEP,INC=100,NAME=Default Set
**
*STATIC
1, 1, 1e-05, 1
**
**
**
**
*END STEP
