*HEADING
cubit(ox/Writings/2017_QDES_DG/matlab/2d/seas/meshes/BP1_V7.inp): 04/05/2018: 15
version: 15.2
**
********************************** P A R T S **********************************
*PART, NAME=Part-Default
**
********************************** N O D E S **********************************
*NODE, NSET=ALLNODES
       1,    0.000000e+00,   -2.000000e+02,    0.000000e+00
       2,    0.000000e+00,   -1.876923e+02,    0.000000e+00
       3,   -1.176471e+01,   -1.876810e+02,    0.000000e+00
       4,   -1.176471e+01,   -2.000000e+02,    0.000000e+00
       5,    0.000000e+00,   -1.753846e+02,    0.000000e+00
       6,   -1.176471e+01,   -1.753620e+02,    0.000000e+00
       7,    0.000000e+00,   -1.630769e+02,    0.000000e+00
       8,   -1.176471e+01,   -1.630430e+02,    0.000000e+00
       9,    0.000000e+00,   -1.507692e+02,    0.000000e+00
      10,   -1.176471e+01,   -1.507240e+02,    0.000000e+00
      11,    0.000000e+00,   -1.384615e+02,    0.000000e+00
      12,   -1.176471e+01,   -1.384050e+02,    0.000000e+00
      13,    0.000000e+00,   -1.261538e+02,    0.000000e+00
      14,   -1.171991e+01,   -1.260253e+02,    0.000000e+00
      15,    0.000000e+00,   -1.138462e+02,    0.000000e+00
      16,   -1.165176e+01,   -1.136191e+02,    0.000000e+00
      17,    0.000000e+00,   -1.015385e+02,    0.000000e+00
      18,   -1.151606e+01,   -1.011397e+02,    0.000000e+00
      19,    0.000000e+00,   -8.923077e+01,    0.000000e+00
      20,   -1.116830e+01,   -8.842450e+01,    0.000000e+00
** ... 4581 like lines cut
**
********************************** E L E M E N T S ****************************
*ELEMENT, TYPE=S4R, ELSET=EB1
       1,       1,       2,       3,       4
       2,       2,       5,       6,       3
       3,       5,       7,       8,       6
       4,       7,       9,      10,       8
       5,       9,      11,      12,      10
       6,      11,      13,      14,      12
       7,      13,      15,      16,      14
       8,      15,      17,      18,      16
       9,      17,      19,      20,      18
      10,      19,      21,      22,      20
      11,      23,      24,      25,      26
      12,      27,      26,      25,      28
      13,      29,      28,      25,      24
      14,      30,      31,      32,      33
      15,      23,      33,      32,      24
      16,      29,      24,      32,      31
      17,       4,       3,      34,      35
      18,       3,       6,      36,      34
      19,       6,       8,      37,      36
      20,       8,      10,      38,      37
** ... 4520 like lines cut
**
********************************** S I D E S E T S **********************************
*ELSET, ELSET=SS1_E2
    2287,    2304,    2321,    2338,    2355,    2372,    2389,    2406,    2423,    2440,
    2457,    2474,    2491,    2508,    2525,    2542
*ELSET, ELSET=SS1_E3
     257,     258,     259,     260,     261,     262,     263,     264,     265,     266,
     267,     268,     269,     270,     271,     272
*SURFACE, NAME=SS1
SS1_E2, E2
SS1_E3, E3
*ELSET, ELSET=SS2_E1
      12,     275,     324,     367,     381,     445,     567,     814,    1942,    2271,
    2272,    2273,    2274,    2275,    2276,    2277,    2278,    2279,    2280,    2281,
    2282,    2283,    2284,    2285,    2286,    2287,    2577,    2590,    2634,    4215
*ELSET, ELSET=SS2_E2
      64,      80,      96,     112,     128,     144,     160,     176,     192,     208,
     224,     240,     256,     272
*ELSET, ELSET=SS2_E3
    2529,    2530,    2531,    2532,    2533,    2534,    2535,    2536,    2537,    2538,
    2539,    2540,    2541,    2542
*ELSET, ELSET=SS2_E4
       1,      17,      33,      49,      65,      81,      97,     113,     129,     145,
     161,     177,     193,     209,     225,     241,     257,     307,     317,     364,
    1943,    2441,    2545,    2594,    2635,    2650,    2714,    2836,    3083,    4212
*SURFACE, NAME=SS2
SS2_E1, E1
SS2_E2, E2
SS2_E3, E3
SS2_E4, E4
*ELSET, ELSET=SS3_E1
       1,       2,       3,       4,       5,       6,       7,       8,       9,      10,
     273,     311,     312,     319,    2073,    2579,    2585,    2643,    3033,    3472,
    4340,    4345
*ELSET, ELSET=SS3_E4
     309,     313,     374,     773,    1215,    2070,    2088,    2271,    2288,    2305,
    2322,    2339,    2356,    2373,    2390,    2407,    2424,    2543,    2580,    2582,
    2591,    4341
*SURFACE, NAME=SS3
SS3_E1, E1
SS3_E4, E4
*ELSET, ELSET=SS7_E1
    1302,    1309,    1313,    1314,    1321,    1322,    1326,    1333,    1337,    1338,
    1342,    1349,    1350,    1357,    1361,    1362,    1369,    1370,    1374,    1381,
    1382,    1389,    1393,    1394,    1398,    1405,    1409,    1410,    1417,    1418,
    1422,    1429,    1433,    1434,    1438,    1445,    1446,    1453,    1457,    1458,
    1462,    1469,    1473,    1474,    1481,    1482,    1486,    1493,    1494,    1501,
    1505,    1506,    1513,    1514,    1518,    1525,    1529,    1530,    1534,    1541,
    1542,    1549,    1553,    1554,    1558,    1565,    1569,    1570,    1577,    1578,
    1582,    1589,    1593,    1594,    1598,    1605,    1606,    1613,    1617,    1618,
    1625,    1626,    1630,    1637,    1638,    1645,    1649,    1650,    1654,    1661,
    1665,    1666,    1673,    1674,    1678,    1685,    1689,    1690,    1694,    1701,
    1702,    1709,    1713,    1714,    1718,    1725,    1729,    1730,    1737,    1738,
    1742,    1749,    1750,    1757,    1761,    1762,    1769,    1770,    1774,    1781,
    1785,    1786,    1790,    1797,    1798,    1805,    1809,    1810,    1814,    1821,
    1825,    1826,    1833,    1834,    1838,    1845,    1849,    1850,    1854,    1861,
    1862,    1869,    1873,    1874,    1881,    1882,    1886,    1893,    1894,    1901,
    1905,    1906,    1910,    1917,    1921,    1922,    1929,    1930,    1934,    1941,
    1945,    1946,    1950,    1957,    1958,    1965,    1969,    1970,    1974,    1981,
    1985,    1986,    1993,    1994,    1998,    2005,    2006,    2013,    2017,    2018,
    2025,    2026,    2030,    2037,    2041,    2042,    2046,    2053,    2054,    2061,
    2065,    2066,    3575,    3576,    3580,    3587,    3588,    3595,    3599,    3600,
** ... 19 like lines cut
*ELSET, ELSET=SS7_E4
    1303,    1306,    1310,    1315,    1318,    1323,    1327,    1330,    1334,    1339,
    1343,    1346,    1351,    1354,    1358,    1363,    1366,    1371,    1375,    1378,
    1383,    1386,    1390,    1395,    1399,    1402,    1406,    1411,    1414,    1419,
    1423,    1426,    1430,    1435,    1439,    1442,    1447,    1450,    1454,    1459,
    1463,    1466,    1470,    1475,    1478,    1483,    1487,    1490,    1495,    1498,
    1502,    1507,    1510,    1515,    1519,    1522,    1526,    1531,    1535,    1538,
    1543,    1546,    1550,    1555,    1559,    1562,    1566,    1571,    1574,    1579,
    1583,    1586,    1590,    1595,    1599,    1602,    1607,    1610,    1614,    1619,
    1622,    1627,    1631,    1634,    1639,    1642,    1646,    1651,    1655,    1658,
    1662,    1667,    1670,    1675,    1679,    1682,    1686,    1691,    1695,    1698,
    1703,    1706,    1710,    1715,    1719,    1722,    1726,    1731,    1734,    1739,
    1743,    1746,    1751,    1754,    1758,    1763,    1766,    1771,    1775,    1778,
    1782,    1787,    1791,    1794,    1799,    1802,    1806,    1811,    1815,    1818,
    1822,    1827,    1830,    1835,    1839,    1842,    1846,    1851,    1855,    1858,
    1863,    1866,    1870,    1875,    1878,    1883,    1887,    1890,    1895,    1898,
    1902,    1907,    1911,    1914,    1918,    1923,    1926,    1931,    1935,    1938,
    1942,    1947,    1951,    1954,    1959,    1962,    1966,    1971,    1975,    1978,
    1982,    1987,    1990,    1995,    1999,    2002,    2007,    2010,    2014,    2019,
    2022,    2027,    2031,    2034,    2038,    2043,    2047,    2050,    2055,    2058,
    2062,    2067,    3572,    3577,    3581,    3584,    3589,    3592,    3596,    3601,
** ... 19 like lines cut
*SURFACE, NAME=SS7
SS7_E1, E1
SS7_E4, E4
**
********************************** P R O P E R T I E S ************************
*SHELL SECTION, ELSET=EB1, SECTION INTEGRATION=SIMPSON, MATERIAL=Default-Steel
1.000000e+00
**
*END PART
**
**
**
********************************** E N D   P A R T S **********************************
**
**
********************************** A S S E M B L Y ************************************
**
*ASSEMBLY, NAME=ASSEMBLY1
**
*INSTANCE, NAME=Part-Default_1, PART=Part-Default
*END INSTANCE
**
*END ASSEMBLY
**
**
**
*MATERIAL, NAME = Default-Steel
*ELASTIC, TYPE=ISOTROPIC
2.068000e+05, 2.900000e-01
*DENSITY
7.000000e-06
*CONDUCTIVITY,TYPE=ISO
4.500000e-02
*SPECIFIC HEAT
5.000000e+02
**
**
************************************** H I S T O R Y *************************************
**
*PREPRINT
**
**************************************** S T E P 1 ***************************************
*STEP,INC=100,NAME=Default Set
**
*STATIC
1, 1, 1e-05, 1
**
**
**
**
*END STEP
