*HEADING
cubit(ox/Writings/2017_QDES_DG/matlab/2d/seas/meshes/BP1_V3.inp): 04/05/2018: 14
version: 15.2
**
********************************** P A R T S **********************************
*PART, NAME=Part-Default
**
********************************** N O D E S **********************************
*NODE, NSET=ALLNODES
       1,    0.000000e+00,   -1.000000e+02,    0.000000e+00
       2,    0.000000e+00,   -9.700000e+01,    0.000000e+00
       3,   -3.030303e+00,   -9.699908e+01,    0.000000e+00
       4,   -3.030303e+00,   -1.000000e+02,    0.000000e+00
       5,    0.000000e+00,   -9.400000e+01,    0.000000e+00
       6,   -3.030303e+00,   -9.399816e+01,    0.000000e+00
       7,    0.000000e+00,   -9.100000e+01,    0.000000e+00
       8,   -3.030303e+00,   -9.099725e+01,    0.000000e+00
       9,    0.000000e+00,   -8.800000e+01,    0.000000e+00
      10,   -3.030303e+00,   -8.799633e+01,    0.000000e+00
      11,    0.000000e+00,   -8.500000e+01,    0.000000e+00
      12,   -3.030303e+00,   -8.499541e+01,    0.000000e+00
      13,    0.000000e+00,   -8.200000e+01,    0.000000e+00
      14,   -3.030303e+00,   -8.199449e+01,    0.000000e+00
      15,    0.000000e+00,   -7.900000e+01,    0.000000e+00
      16,   -3.030303e+00,   -7.899357e+01,    0.000000e+00
      17,    0.000000e+00,   -7.600000e+01,    0.000000e+00
      18,   -3.030303e+00,   -7.599265e+01,    0.000000e+00
      19,    0.000000e+00,   -7.300000e+01,    0.000000e+00
      20,   -3.030303e+00,   -7.299174e+01,    0.000000e+00
** ... 6352 like lines cut
**
********************************** E L E M E N T S ****************************
*ELEMENT, TYPE=S4R, ELSET=EB1
       1,       1,       2,       3,       4
       2,       2,       5,       6,       3
       3,       5,       7,       8,       6
       4,       7,       9,      10,       8
       5,       9,      11,      12,      10
       6,      11,      13,      14,      12
       7,      13,      15,      16,      14
       8,      15,      17,      18,      16
       9,      17,      19,      20,      18
      10,      19,      21,      22,      20
      11,      21,      23,      24,      22
      12,      23,      25,      26,      24
      13,      25,      27,      28,      26
      14,      27,      29,      30,      28
      15,      29,      31,      32,      30
      16,      31,      33,      34,      32
      17,      33,      35,      36,      34
      18,      35,      37,      38,      36
      19,      37,      39,      40,      38
      20,      41,      42,      43,      44
** ... 6246 like lines cut
**
********************************** S I D E S E T S **********************************
*ELSET, ELSET=SS2_E1
      22,    1091,    1158,    1290,    1557,    2885,    3134,    3135,    3136,    3137,
    3138,    3139,    3140,    3141,    3142,    3143,    3144,    3145,    3146,    3147,
    3148,    3149,    3150,    3151,    3152,    3153,    3154,    3155,    3156,    3157,
    3158,    3159,    3160,    3161,    3162,    3163,    3164,    3165,    3166,    3761,
    6021
*ELSET, ELSET=SS2_E2
      99,     132,     165,     198,     231,     264,     297,     330,     363,     396,
     429,     462,     495,     528,     561,     594,     627,     660,     693,     726,
     759,     792,     825,     858,     891,     924,     957,     990,    1023,    1056,
    1089,    3166,    3199,    3232,    3265,    3298,    3331,    3364,    3397,    3430,
    3463,    3496,    3529,    3562,    3595,    3628,    3661,    3694,    3727,    3760,
    3793,    3826,    3859,    3892,    3925,    3958,    3991,    4024,    4057,    4090,
    4123,    4156,    4189,    4222
*ELSET, ELSET=SS2_E3
    1057,    1058,    1059,    1060,    1061,    1062,    1063,    1064,    1065,    1066,
    1067,    1068,    1069,    1070,    1071,    1072,    1073,    1074,    1075,    1076,
    1077,    1078,    1079,    1080,    1081,    1082,    1083,    1084,    1085,    1086,
    1087,    1088,    1089,    4192,    4193,    4194,    4195,    4196,    4197,    4198,
    4199,    4200,    4201,    4202,    4203,    4204,    4205,    4206,    4207,    4208,
    4209,    4210,    4211,    4212,    4213,    4214,    4215,    4216,    4217,    4218,
    4219,    4220,    4221,    4222
*ELSET, ELSET=SS2_E4
       1,      21,      34,      67,     100,     133,     166,     199,     232,     265,
     298,     331,     364,     397,     430,     463,     496,     529,     562,     595,
     628,     661,     694,     727,     760,     793,     826,     859,     892,     925,
     958,     991,    1024,    1057,    2886,    3795,    4223,    4290,    4422,    4689,
    6018
*SURFACE, NAME=SS2
SS2_E1, E1
SS2_E2, E2
SS2_E3, E3
SS2_E4, E4
*ELSET, ELSET=SS3_E1
       1,       2,       3,       4,       5,       6,       7,       8,       9,      10,
      11,      12,      13,      14,      15,      16,      17,      18,      19,    1144,
    2920,    4635,    5110,    6050,    6055
*ELSET, ELSET=SS3_E4
    1512,    1990,    2917,    2935,    3134,    3167,    3200,    3233,    3266,    3299,
    3332,    3365,    3398,    3431,    3464,    3497,    3530,    3563,    3596,    3629,
    3662,    3695,    3728,    4276,    6051
*SURFACE, NAME=SS3
SS3_E1, E1
SS3_E4, E4
*ELSET, ELSET=SS7_E1
    2085,    2092,    2096,    2097,    2104,    2105,    2109,    2116,    2120,    2121,
    2125,    2132,    2133,    2140,    2144,    2145,    2149,    2156,    2160,    2161,
    2168,    2169,    2173,    2180,    2184,    2185,    2189,    2196,    2197,    2204,
    2208,    2209,    2213,    2220,    2224,    2225,    2232,    2233,    2237,    2244,
    2248,    2249,    2253,    2260,    2261,    2268,    2272,    2273,    2277,    2284,
    2288,    2289,    2296,    2297,    2301,    2308,    2312,    2313,    2317,    2324,
    2325,    2332,    2336,    2337,    2341,    2348,    2352,    2353,    2360,    2361,
    2365,    2372,    2376,    2377,    2381,    2388,    2389,    2396,    2400,    2401,
    2405,    2412,    2416,    2417,    2424,    2425,    2429,    2436,    2440,    2441,
    2445,    2452,    2453,    2460,    2464,    2465,    2469,    2476,    2480,    2481,
    2488,    2489,    2493,    2500,    2504,    2505,    2509,    2516,    2517,    2524,
    2528,    2529,    2533,    2540,    2544,    2545,    2552,    2553,    2557,    2564,
    2568,    2569,    2573,    2580,    2581,    2588,    2592,    2593,    2597,    2604,
    2608,    2609,    2616,    2617,    2621,    2628,    2632,    2633,    2637,    2644,
    2645,    2652,    2656,    2657,    2661,    2668,    2672,    2673,    2680,    2681,
    2685,    2692,    2696,    2697,    2701,    2708,    2709,    2716,    2720,    2721,
    2725,    2732,    2736,    2737,    2744,    2745,    2749,    2756,    2760,    2761,
    2765,    2772,    2773,    2780,    2784,    2785,    2789,    2796,    2800,    2801,
    2808,    2809,    2813,    2820,    2824,    2825,    2829,    2836,    2837,    2844,
    2848,    2849,    2853,    2860,    2864,    2865,    2872,    2873,    2877,    2884,
** ... 22 like lines cut
*ELSET, ELSET=SS7_E4
    2086,    2089,    2093,    2098,    2101,    2106,    2110,    2113,    2117,    2122,
    2126,    2129,    2134,    2137,    2141,    2146,    2150,    2153,    2157,    2162,
    2165,    2170,    2174,    2177,    2181,    2186,    2190,    2193,    2198,    2201,
    2205,    2210,    2214,    2217,    2221,    2226,    2229,    2234,    2238,    2241,
    2245,    2250,    2254,    2257,    2262,    2265,    2269,    2274,    2278,    2281,
    2285,    2290,    2293,    2298,    2302,    2305,    2309,    2314,    2318,    2321,
    2326,    2329,    2333,    2338,    2342,    2345,    2349,    2354,    2357,    2362,
    2366,    2369,    2373,    2378,    2382,    2385,    2390,    2393,    2397,    2402,
    2406,    2409,    2413,    2418,    2421,    2426,    2430,    2433,    2437,    2442,
    2446,    2449,    2454,    2457,    2461,    2466,    2470,    2473,    2477,    2482,
    2485,    2490,    2494,    2497,    2501,    2506,    2510,    2513,    2518,    2521,
    2525,    2530,    2534,    2537,    2541,    2546,    2549,    2554,    2558,    2561,
    2565,    2570,    2574,    2577,    2582,    2585,    2589,    2594,    2598,    2601,
    2605,    2610,    2613,    2618,    2622,    2625,    2629,    2634,    2638,    2641,
    2646,    2649,    2653,    2658,    2662,    2665,    2669,    2674,    2677,    2682,
    2686,    2689,    2693,    2698,    2702,    2705,    2710,    2713,    2717,    2722,
    2726,    2729,    2733,    2738,    2741,    2746,    2750,    2753,    2757,    2762,
    2766,    2769,    2774,    2777,    2781,    2786,    2790,    2793,    2797,    2802,
    2805,    2810,    2814,    2817,    2821,    2826,    2830,    2833,    2838,    2841,
    2845,    2850,    2854,    2857,    2861,    2866,    2869,    2874,    2878,    2881,
** ... 22 like lines cut
*SURFACE, NAME=SS7
SS7_E1, E1
SS7_E4, E4
**
********************************** P R O P E R T I E S ************************
*SHELL SECTION, ELSET=EB1, SECTION INTEGRATION=SIMPSON, MATERIAL=Default-Steel
1.000000e+00
**
*END PART
**
**
**
********************************** E N D   P A R T S **********************************
**
**
********************************** A S S E M B L Y ************************************
**
*ASSEMBLY, NAME=ASSEMBLY1
**
*INSTANCE, NAME=Part-Default_1, PART=Part-Default
*END INSTANCE
**
*END ASSEMBLY
**
**
**
*MATERIAL, NAME = Default-Steel
*ELASTIC, TYPE=ISOTROPIC
2.068000e+05, 2.900000e-01
*DENSITY
7.000000e-06
*CONDUCTIVITY,TYPE=ISO
4.500000e-02
*SPECIFIC HEAT
5.000000e+02
**
**
************************************** H I S T O R Y *************************************
**
*PREPRINT
**
**************************************** S T E P 1 ***************************************
*STEP,INC=100,NAME=Default Set
**
*STATIC
1, 1, 1e-05, 1
**
**
**
**
*END STEP
