*HEADING
cubit(x/Writings/2017_QDES_DG/matlab/2d/seas/meshes/BP1_V14.inp): 04/16/2018: 20
version: 15.2
**
********************************** P A R T S **********************************
*PART, NAME=Part-Default
**
********************************** N O D E S **********************************
*NODE, NSET=ALLNODES
       1,   -3.542251e+01,   -1.340296e+01,    0.000000e+00
       2,   -2.884025e+01,   -1.345318e+01,    0.000000e+00
       3,   -2.873902e+01,   -6.741090e+00,    0.000000e+00
       4,   -3.428571e+01,    0.000000e+00,    0.000000e+00
       5,   -2.285714e+01,    0.000000e+00,    0.000000e+00
       6,   -2.309109e+01,   -6.770087e+00,    0.000000e+00
       7,   -2.293669e+01,   -1.351522e+01,    0.000000e+00
       8,   -2.395141e+01,   -2.685304e+01,    0.000000e+00
       9,   -2.323016e+01,   -2.019981e+01,    0.000000e+00
      10,   -2.824284e+01,   -2.014547e+01,    0.000000e+00
      11,   -3.265811e+01,   -2.678343e+01,    0.000000e+00
      12,   -3.486431e+01,   -4.008839e+01,    0.000000e+00
      13,   -2.846677e+01,   -4.010691e+01,    0.000000e+00
      14,   -2.809762e+01,   -3.346198e+01,    0.000000e+00
      15,   -2.315100e+01,   -3.349249e+01,    0.000000e+00
      16,   -2.281389e+01,   -4.012404e+01,    0.000000e+00
      17,   -2.391716e+01,   -5.339212e+01,    0.000000e+00
      18,   -2.313409e+01,   -4.675641e+01,    0.000000e+00
      19,   -2.807827e+01,   -4.675124e+01,    0.000000e+00
      20,   -3.263396e+01,   -5.339040e+01,    0.000000e+00
** ... 7831 like lines cut
**
********************************** E L E M E N T S ****************************
*ELEMENT, TYPE=S4R, ELSET=EB1
       1,       1,       2,       3,       4
       2,       5,       4,       3,       6
       3,       7,       6,       3,       2
       4,       8,       9,      10,      11
       5,       1,      11,      10,       2
       6,       7,       2,      10,       9
       7,      12,      13,      14,      11
       8,       8,      11,      14,      15
       9,      16,      15,      14,      13
      10,      17,      18,      19,      20
      11,      12,      20,      19,      13
      12,      16,      13,      19,      18
      13,      21,      22,      23,      20
      14,      17,      20,      23,      24
      15,      25,      24,      23,      22
      16,      26,      27,      28,      29
      17,      21,      29,      28,      22
      18,      25,      22,      28,      27
      19,      29,      21,      30,      31
      20,      21,      20,      32,      30
** ... 7792 like lines cut
**
********************************** S I D E S E T S **********************************
*ELSET, ELSET=SS1_E2
    3913,    3920,    3927,    3934,    3941,    3948
*ELSET, ELSET=SS1_E3
      37,      38,      39,      40,      41,      42
*SURFACE, NAME=SS1
SS1_E2, E2
SS1_E3, E3
*ELSET, ELSET=SS2_E1
       2,      44,      70,      92,     103,     182,     188,     308,     548,    1028,
    1990,    3395,    3910,    3911,    3912,    3913,    3943,    3993,    3995,    4004,
    4085,    4190,    4406,    4838,    5702,    5893,    7304,    7430
*ELSET, ELSET=SS2_E2
      24,      30,      36,      42
*ELSET, ELSET=SS2_E3
    3945,    3946,    3947,    3948
*ELSET, ELSET=SS2_E4
      16,      19,      25,      31,      37,      84,      89,     104,     179,     288,
     504,     936,    1800,    1987,    3396,    3528,    3907,    3949,    3954,    3997,
    4001,    4086,    4093,    4213,    4453,    4933,    5894,    7301
*SURFACE, NAME=SS2
SS2_E1, E1
SS2_E2, E2
SS2_E3, E3
SS2_E4, E4
*ELSET, ELSET=SS3_E1
    1987,    1994,    1998,    1999,    2006,    2007,    2011,    2018,    2022,    2023,
    2027,    2034,    2035,    2042,    2046,    2047,    2054,    2055,    2059,    2066,
    2067,    2074,    2078,    2079,    2083,    2090,    2094,    2095,    2102,    2103,
    2107,    2114,    2118,    2119,    2123,    2130,    2131,    2138,    2142,    2143,
    2147,    2154,    2158,    2159,    2166,    2167,    2171,    2178,    2179,    2186,
    2190,    2191,    2198,    2199,    2203,    2210,    2214,    2215,    2219,    2226,
    2227,    2234,    2238,    2239,    2243,    2250,    2254,    2255,    2262,    2263,
    2267,    2274,    2278,    2279,    2283,    2290,    2291,    2298,    2302,    2303,
    2310,    2311,    2315,    2322,    2323,    2330,    2334,    2335,    2339,    2346,
    2350,    2351,    2358,    2359,    2363,    2370,    2374,    2375,    2379,    2386,
    2387,    2394,    2398,    2399,    2403,    2410,    2414,    2415,    2422,    2423,
    2427,    2434,    2435,    2442,    2446,    2447,    2454,    2455,    2459,    2466,
    2470,    2471,    2475,    2482,    2483,    2490,    2494,    2495,    2499,    2506,
    2510,    2511,    2518,    2519,    2523,    2530,    2534,    2535,    2539,    2546,
    2547,    2554,    2558,    2559,    2566,    2567,    2571,    2578,    2579,    2586,
    2590,    2591,    2595,    2602,    2606,    2607,    2614,    2615,    2619,    2626,
    2630,    2631,    2635,    2642,    2643,    2650,    2654,    2655,    2659,    2666,
    2670,    2671,    2678,    2679,    2683,    2690,    2691,    2698,    2702,    2703,
    2710,    2711,    2715,    2722,    2726,    2727,    2731,    2738,    2739,    2746,
    2750,    2751,    5896,    5897,    5901,    5908,    5909,    5916,    5920,    5921,
** ... 19 like lines cut
*ELSET, ELSET=SS3_E4
    1988,    1991,    1995,    2000,    2003,    2008,    2012,    2015,    2019,    2024,
    2028,    2031,    2036,    2039,    2043,    2048,    2051,    2056,    2060,    2063,
    2068,    2071,    2075,    2080,    2084,    2087,    2091,    2096,    2099,    2104,
    2108,    2111,    2115,    2120,    2124,    2127,    2132,    2135,    2139,    2144,
    2148,    2151,    2155,    2160,    2163,    2168,    2172,    2175,    2180,    2183,
    2187,    2192,    2195,    2200,    2204,    2207,    2211,    2216,    2220,    2223,
    2228,    2231,    2235,    2240,    2244,    2247,    2251,    2256,    2259,    2264,
    2268,    2271,    2275,    2280,    2284,    2287,    2292,    2295,    2299,    2304,
    2307,    2312,    2316,    2319,    2324,    2327,    2331,    2336,    2340,    2343,
    2347,    2352,    2355,    2360,    2364,    2367,    2371,    2376,    2380,    2383,
    2388,    2391,    2395,    2400,    2404,    2407,    2411,    2416,    2419,    2424,
    2428,    2431,    2436,    2439,    2443,    2448,    2451,    2456,    2460,    2463,
    2467,    2472,    2476,    2479,    2484,    2487,    2491,    2496,    2500,    2503,
    2507,    2512,    2515,    2520,    2524,    2527,    2531,    2536,    2540,    2543,
    2548,    2551,    2555,    2560,    2563,    2568,    2572,    2575,    2580,    2583,
    2587,    2592,    2596,    2599,    2603,    2608,    2611,    2616,    2620,    2623,
    2627,    2632,    2636,    2639,    2644,    2647,    2651,    2656,    2660,    2663,
    2667,    2672,    2675,    2680,    2684,    2687,    2692,    2695,    2699,    2704,
    2707,    2712,    2716,    2719,    2723,    2728,    2732,    2735,    2740,    2743,
    2747,    2752,    5893,    5898,    5902,    5905,    5910,    5913,    5917,    5922,
** ... 19 like lines cut
*SURFACE, NAME=SS3
SS3_E1, E1
SS3_E4, E4
*ELSET, ELSET=SS7_E1
    2755,    2762,    2766,    2767,    2774,    2775,    2779,    2786,    2790,    2791,
    2795,    2802,    2803,    2810,    2814,    2815,    2822,    2823,    2827,    2834,
    2835,    2842,    2846,    2847,    2851,    2858,    2862,    2863,    2870,    2871,
    2875,    2882,    2886,    2887,    2891,    2898,    2899,    2906,    2910,    2911,
    2915,    2922,    2926,    2927,    2934,    2935,    2939,    2946,    2947,    2954,
    2958,    2959,    2966,    2967,    2971,    2978,    2982,    2983,    2987,    2994,
    2995,    3002,    3006,    3007,    3011,    3018,    3022,    3023,    3030,    3031,
    3035,    3042,    3046,    3047,    3051,    3058,    3059,    3066,    3070,    3071,
    3078,    3079,    3083,    3090,    3091,    3098,    3102,    3103,    3107,    3114,
    3118,    3119,    3126,    3127,    3131,    3138,    3142,    3143,    3147,    3154,
    3155,    3162,    3166,    3167,    3171,    3178,    3182,    3183,    3190,    3191,
    3195,    3202,    3203,    3210,    3214,    3215,    3222,    3223,    3227,    3234,
    3238,    3239,    3243,    3250,    3251,    3258,    3262,    3263,    3267,    3274,
    3278,    3279,    3286,    3287,    3291,    3298,    3302,    3303,    3307,    3314,
    3315,    3322,    3326,    3327,    3334,    3335,    3339,    3346,    3347,    3354,
    3358,    3359,    3363,    3370,    3374,    3375,    3382,    3383,    3387,    3394,
    3398,    3399,    3403,    3410,    3411,    3418,    3422,    3423,    3427,    3434,
    3438,    3439,    3446,    3447,    3451,    3458,    3459,    3466,    3470,    3471,
    3478,    3479,    3483,    3490,    3494,    3495,    3499,    3506,    3507,    3514,
    3518,    3519,    6664,    6665,    6669,    6676,    6677,    6684,    6688,    6689,
** ... 19 like lines cut
*ELSET, ELSET=SS7_E4
    2756,    2759,    2763,    2768,    2771,    2776,    2780,    2783,    2787,    2792,
    2796,    2799,    2804,    2807,    2811,    2816,    2819,    2824,    2828,    2831,
    2836,    2839,    2843,    2848,    2852,    2855,    2859,    2864,    2867,    2872,
    2876,    2879,    2883,    2888,    2892,    2895,    2900,    2903,    2907,    2912,
    2916,    2919,    2923,    2928,    2931,    2936,    2940,    2943,    2948,    2951,
    2955,    2960,    2963,    2968,    2972,    2975,    2979,    2984,    2988,    2991,
    2996,    2999,    3003,    3008,    3012,    3015,    3019,    3024,    3027,    3032,
    3036,    3039,    3043,    3048,    3052,    3055,    3060,    3063,    3067,    3072,
    3075,    3080,    3084,    3087,    3092,    3095,    3099,    3104,    3108,    3111,
    3115,    3120,    3123,    3128,    3132,    3135,    3139,    3144,    3148,    3151,
    3156,    3159,    3163,    3168,    3172,    3175,    3179,    3184,    3187,    3192,
    3196,    3199,    3204,    3207,    3211,    3216,    3219,    3224,    3228,    3231,
    3235,    3240,    3244,    3247,    3252,    3255,    3259,    3264,    3268,    3271,
    3275,    3280,    3283,    3288,    3292,    3295,    3299,    3304,    3308,    3311,
    3316,    3319,    3323,    3328,    3331,    3336,    3340,    3343,    3348,    3351,
    3355,    3360,    3364,    3367,    3371,    3376,    3379,    3384,    3388,    3391,
    3395,    3400,    3404,    3407,    3412,    3415,    3419,    3424,    3428,    3431,
    3435,    3440,    3443,    3448,    3452,    3455,    3460,    3463,    3467,    3472,
    3475,    3480,    3484,    3487,    3491,    3496,    3500,    3503,    3508,    3511,
    3515,    3520,    6661,    6666,    6670,    6673,    6678,    6681,    6685,    6690,
** ... 19 like lines cut
*SURFACE, NAME=SS7
SS7_E1, E1
SS7_E4, E4
**
********************************** P R O P E R T I E S ************************
*SHELL SECTION, ELSET=EB1, SECTION INTEGRATION=SIMPSON, MATERIAL=Default-Steel
1.000000e+00
**
*END PART
**
**
**
********************************** E N D   P A R T S **********************************
**
**
********************************** A S S E M B L Y ************************************
**
*ASSEMBLY, NAME=ASSEMBLY1
**
*INSTANCE, NAME=Part-Default_1, PART=Part-Default
*END INSTANCE
**
*END ASSEMBLY
**
**
**
*MATERIAL, NAME = Default-Steel
*ELASTIC, TYPE=ISOTROPIC
2.068000e+05, 2.900000e-01
*DENSITY
7.000000e-06
*CONDUCTIVITY,TYPE=ISO
4.500000e-02
*SPECIFIC HEAT
5.000000e+02
**
**
************************************** H I S T O R Y *************************************
**
*PREPRINT
**
**************************************** S T E P 1 ***************************************
*STEP,INC=100,NAME=Default Set
**
*STATIC
1, 1, 1e-05, 1
**
**
**
**
*END STEP
