*HEADING
cubit(x/Writings/2017_QDES_DG/matlab/2d/seas/meshes/BP1_V21.inp): 04/19/2018: 09
version: 15.2
**
********************************** P A R T S **********************************
*PART, NAME=Part-Default
**
********************************** N O D E S **********************************
*NODE, NSET=ALLNODES
       1,    0.000000e+00,   -4.000000e+02,    0.000000e+00
       2,    0.000000e+00,   -3.880000e+02,    0.000000e+00
       3,   -1.142857e+01,   -3.879827e+02,    0.000000e+00
       4,   -1.142857e+01,   -4.000000e+02,    0.000000e+00
       5,    0.000000e+00,   -3.760000e+02,    0.000000e+00
       6,   -1.142857e+01,   -3.759654e+02,    0.000000e+00
       7,    0.000000e+00,   -3.640000e+02,    0.000000e+00
       8,   -1.142857e+01,   -3.639481e+02,    0.000000e+00
       9,    0.000000e+00,   -3.520000e+02,    0.000000e+00
      10,   -1.142857e+01,   -3.519307e+02,    0.000000e+00
      11,    0.000000e+00,   -3.400000e+02,    0.000000e+00
      12,   -1.142857e+01,   -3.399134e+02,    0.000000e+00
      13,    0.000000e+00,   -3.280000e+02,    0.000000e+00
      14,   -1.142857e+01,   -3.278961e+02,    0.000000e+00
      15,    0.000000e+00,   -3.160000e+02,    0.000000e+00
      16,   -1.142857e+01,   -3.158788e+02,    0.000000e+00
      17,    0.000000e+00,   -3.040000e+02,    0.000000e+00
      18,   -1.142857e+01,   -3.038615e+02,    0.000000e+00
      19,    0.000000e+00,   -2.920000e+02,    0.000000e+00
      20,   -1.142857e+01,   -2.918442e+02,    0.000000e+00
** ... 4496 like lines cut
**
********************************** E L E M E N T S ****************************
*ELEMENT, TYPE=S4R, ELSET=EB1
       1,       1,       2,       3,       4
       2,       2,       5,       6,       3
       3,       5,       7,       8,       6
       4,       7,       9,      10,       8
       5,       9,      11,      12,      10
       6,      11,      13,      14,      12
       7,      13,      15,      16,      14
       8,      15,      17,      18,      16
       9,      17,      19,      20,      18
      10,      19,      21,      22,      20
      11,      21,      23,      24,      22
      12,      23,      25,      26,      24
      13,      25,      27,      28,      26
      14,      27,      29,      30,      28
      15,      29,      31,      32,      30
      16,      31,      33,      34,      32
      17,      33,      35,      36,      34
      18,      35,      37,      38,      36
      19,      37,      39,      40,      38
      20,      39,      41,      42,      40
** ... 4438 like lines cut
**
********************************** S I D E S E T S **********************************
*ELSET, ELSET=SS2_E1
      29,     234,     283,     326,     340,     404,     526,     773,    1901,    2230,
    2231,    2232,    2233,    2234,    2235,    2236,    2495,    2508,    2552,    4133
*ELSET, ELSET=SS2_E2
     132,     165,     198,     231,    2236,    2243,    2250,    2257,    2264,    2271,
    2278,    2285,    2292,    2299,    2306,    2313,    2320,    2327,    2334,    2341,
    2348,    2355,    2362,    2369,    2376,    2383,    2390,    2397,    2404,    2411,
    2418,    2425,    2432,    2439,    2446,    2453,    2460
*ELSET, ELSET=SS2_E3
     199,     200,     201,     202,     203,     204,     205,     206,     207,     208,
     209,     210,     211,     212,     213,     214,     215,     216,     217,     218,
     219,     220,     221,     222,     223,     224,     225,     226,     227,     228,
     229,     230,     231,    2457,    2458,    2459,    2460
*ELSET, ELSET=SS2_E4
       1,      34,      67,     100,     133,     166,     199,     266,     276,     323,
    1902,    2419,    2463,    2512,    2553,    2568,    2632,    2754,    3001,    4130
*SURFACE, NAME=SS2
SS2_E1, E1
SS2_E2, E2
SS2_E3, E3
SS2_E4, E4
*ELSET, ELSET=SS3_E1
       1,       2,       3,       4,       5,       6,       7,       8,       9,      10,
      11,      12,      13,      14,      15,      16,      17,      18,      19,      20,
      21,      22,      23,      24,      25,      26,      27,     232,     270,     271,
     278,    2032,    2497,    2503,    2561,    2951,    3390,    4258,    4263
*ELSET, ELSET=SS3_E4
     268,     272,     333,     732,    1174,    2029,    2047,    2230,    2237,    2244,
    2251,    2258,    2265,    2272,    2279,    2286,    2293,    2300,    2307,    2314,
    2321,    2328,    2335,    2342,    2349,    2356,    2363,    2370,    2377,    2384,
    2391,    2398,    2405,    2412,    2461,    2498,    2500,    2509,    4259
*SURFACE, NAME=SS3
SS3_E1, E1
SS3_E4, E4
*ELSET, ELSET=SS7_E1
    1261,    1268,    1272,    1273,    1280,    1281,    1285,    1292,    1296,    1297,
    1301,    1308,    1309,    1316,    1320,    1321,    1328,    1329,    1333,    1340,
    1341,    1348,    1352,    1353,    1357,    1364,    1368,    1369,    1376,    1377,
    1381,    1388,    1392,    1393,    1397,    1404,    1405,    1412,    1416,    1417,
    1421,    1428,    1432,    1433,    1440,    1441,    1445,    1452,    1453,    1460,
    1464,    1465,    1472,    1473,    1477,    1484,    1488,    1489,    1493,    1500,
    1501,    1508,    1512,    1513,    1517,    1524,    1528,    1529,    1536,    1537,
    1541,    1548,    1552,    1553,    1557,    1564,    1565,    1572,    1576,    1577,
    1584,    1585,    1589,    1596,    1597,    1604,    1608,    1609,    1613,    1620,
    1624,    1625,    1632,    1633,    1637,    1644,    1648,    1649,    1653,    1660,
    1661,    1668,    1672,    1673,    1677,    1684,    1688,    1689,    1696,    1697,
    1701,    1708,    1709,    1716,    1720,    1721,    1728,    1729,    1733,    1740,
    1744,    1745,    1749,    1756,    1757,    1764,    1768,    1769,    1773,    1780,
    1784,    1785,    1792,    1793,    1797,    1804,    1808,    1809,    1813,    1820,
    1821,    1828,    1832,    1833,    1840,    1841,    1845,    1852,    1853,    1860,
    1864,    1865,    1869,    1876,    1880,    1881,    1888,    1889,    1893,    1900,
    1904,    1905,    1909,    1916,    1917,    1924,    1928,    1929,    1933,    1940,
    1944,    1945,    1952,    1953,    1957,    1964,    1965,    1972,    1976,    1977,
    1984,    1985,    1989,    1996,    2000,    2001,    2005,    2012,    2013,    2020,
    2024,    2025,    3493,    3494,    3498,    3505,    3506,    3513,    3517,    3518,
** ... 19 like lines cut
*ELSET, ELSET=SS7_E4
    1262,    1265,    1269,    1274,    1277,    1282,    1286,    1289,    1293,    1298,
    1302,    1305,    1310,    1313,    1317,    1322,    1325,    1330,    1334,    1337,
    1342,    1345,    1349,    1354,    1358,    1361,    1365,    1370,    1373,    1378,
    1382,    1385,    1389,    1394,    1398,    1401,    1406,    1409,    1413,    1418,
    1422,    1425,    1429,    1434,    1437,    1442,    1446,    1449,    1454,    1457,
    1461,    1466,    1469,    1474,    1478,    1481,    1485,    1490,    1494,    1497,
    1502,    1505,    1509,    1514,    1518,    1521,    1525,    1530,    1533,    1538,
    1542,    1545,    1549,    1554,    1558,    1561,    1566,    1569,    1573,    1578,
    1581,    1586,    1590,    1593,    1598,    1601,    1605,    1610,    1614,    1617,
    1621,    1626,    1629,    1634,    1638,    1641,    1645,    1650,    1654,    1657,
    1662,    1665,    1669,    1674,    1678,    1681,    1685,    1690,    1693,    1698,
    1702,    1705,    1710,    1713,    1717,    1722,    1725,    1730,    1734,    1737,
    1741,    1746,    1750,    1753,    1758,    1761,    1765,    1770,    1774,    1777,
    1781,    1786,    1789,    1794,    1798,    1801,    1805,    1810,    1814,    1817,
    1822,    1825,    1829,    1834,    1837,    1842,    1846,    1849,    1854,    1857,
    1861,    1866,    1870,    1873,    1877,    1882,    1885,    1890,    1894,    1897,
    1901,    1906,    1910,    1913,    1918,    1921,    1925,    1930,    1934,    1937,
    1941,    1946,    1949,    1954,    1958,    1961,    1966,    1969,    1973,    1978,
    1981,    1986,    1990,    1993,    1997,    2002,    2006,    2009,    2014,    2017,
    2021,    2026,    3490,    3495,    3499,    3502,    3507,    3510,    3514,    3519,
** ... 19 like lines cut
*SURFACE, NAME=SS7
SS7_E1, E1
SS7_E4, E4
**
********************************** P R O P E R T I E S ************************
*SHELL SECTION, ELSET=EB1, SECTION INTEGRATION=SIMPSON, MATERIAL=Default-Steel
1.000000e+00
**
*END PART
**
**
**
********************************** E N D   P A R T S **********************************
**
**
********************************** A S S E M B L Y ************************************
**
*ASSEMBLY, NAME=ASSEMBLY1
**
*INSTANCE, NAME=Part-Default_1, PART=Part-Default
*END INSTANCE
**
*END ASSEMBLY
**
**
**
*MATERIAL, NAME = Default-Steel
*ELASTIC, TYPE=ISOTROPIC
2.068000e+05, 2.900000e-01
*DENSITY
7.000000e-06
*CONDUCTIVITY,TYPE=ISO
4.500000e-02
*SPECIFIC HEAT
5.000000e+02
**
**
************************************** H I S T O R Y *************************************
**
*PREPRINT
**
**************************************** S T E P 1 ***************************************
*STEP,INC=100,NAME=Default Set
**
*STATIC
1, 1, 1e-05, 1
**
**
**
**
*END STEP
