*HEADING
cubit(x/Writings/2017_QDES_DG/matlab/2d/seas/meshes/BP1_V20.inp): 04/19/2018: 09
version: 15.2
**
********************************** P A R T S **********************************
*PART, NAME=Part-Default
**
********************************** N O D E S **********************************
*NODE, NSET=ALLNODES
       1,   -3.763083e+01,   -1.325605e+01,    0.000000e+00
       2,   -3.064892e+01,   -1.334138e+01,    0.000000e+00
       3,   -3.050997e+01,   -6.691697e+00,    0.000000e+00
       4,   -3.636364e+01,    0.000000e+00,    0.000000e+00
       5,   -2.424242e+01,    0.000000e+00,    0.000000e+00
       6,   -2.451735e+01,   -6.733707e+00,    0.000000e+00
       7,   -2.437065e+01,   -1.342828e+01,    0.000000e+00
       8,   -2.552604e+01,   -2.665415e+01,    0.000000e+00
       9,   -2.471851e+01,   -2.006024e+01,    0.000000e+00
      10,   -3.005094e+01,   -1.995027e+01,    0.000000e+00
      11,   -3.477655e+01,   -2.643675e+01,    0.000000e+00
      12,   -1.212121e+01,   -8.000000e+01,    0.000000e+00
      13,   -1.346837e+01,   -6.826096e+01,    0.000000e+00
      14,   -2.336344e+01,   -6.556122e+01,    0.000000e+00
      15,   -2.424242e+01,   -8.000000e+01,    0.000000e+00
      16,   -3.730796e+01,   -3.926206e+01,    0.000000e+00
      17,   -3.048871e+01,   -3.953090e+01,    0.000000e+00
      18,   -2.999633e+01,   -3.307356e+01,    0.000000e+00
      19,   -2.472374e+01,   -3.325302e+01,    0.000000e+00
      20,   -2.442006e+01,   -3.986855e+01,    0.000000e+00
** ... 4455 like lines cut
**
********************************** E L E M E N T S ****************************
*ELEMENT, TYPE=S4R, ELSET=EB1
       1,       1,       2,       3,       4
       2,       5,       4,       3,       6
       3,       7,       6,       3,       2
       4,       8,       9,      10,      11
       5,       1,      11,      10,       2
       6,       7,       2,      10,       9
       7,      12,      13,      14,      15
       8,      16,      17,      18,      11
       9,       8,      11,      18,      19
      10,      20,      19,      18,      17
      11,      21,      22,      23,      24
      12,      16,      24,      23,      17
      13,      15,      14,      25,      26
      14,      14,      21,      24,      25
      15,      20,      17,      23,      22
      16,      13,      27,      28,      14
      17,      21,      14,      28,      29
      18,      30,      29,      28,      27
      19,      26,      25,      31,      32
      20,      25,      24,      33,      31
** ... 4372 like lines cut
**
********************************** S I D E S E T S **********************************
*ELSET, ELSET=SS2_E1
       2,     201,     250,     293,     307,     371,     493,     740,    1868,    2198,
    2199,    2200,    2201,    2202,    2203,    2204,    2205,    2206,    2207,    2208,
    2209,    2210,    2211,    2212,    2213,    2214,    2215,    2216,    2217,    2218,
    2219,    2220,    2221,    2222,    2223,    2224,    2225,    2226,    2227,    2228,
    2229,    2429,    2432,    2442,    2486,    4067
*ELSET, ELSET=SS2_E2
      24,      30,      36,      42,      48,      54,      60,      66,      72,      78,
      84,      90,      96,     102,     108,     114,     120,     126,     132,     138,
     144,     150,     156,     162,     168,     174,     180,     186,     192,     198,
    2229,    2262,    2295,    2328,    2361,    2394
*ELSET, ELSET=SS2_E3
     193,     194,     195,     196,     197,     198,    2365,    2366,    2367,    2368,
    2369,    2370,    2371,    2372,    2373,    2374,    2375,    2376,    2377,    2378,
    2379,    2380,    2381,    2382,    2383,    2384,    2385,    2386,    2387,    2388,
    2389,    2390,    2391,    2392,    2393,    2394
*ELSET, ELSET=SS2_E4
       7,      13,      19,      25,      31,      37,      43,      49,      55,      61,
      67,      73,      79,      85,      91,      97,     103,     109,     115,     121,
     127,     133,     139,     145,     151,     157,     163,     169,     175,     181,
     187,     193,     233,     237,     243,     290,    1869,    2197,    2397,    2446,
    2487,    2502,    2566,    2688,    2935,    4064
*SURFACE, NAME=SS2
SS2_E1, E1
SS2_E2, E2
SS2_E3, E3
SS2_E4, E4
*ELSET, ELSET=SS3_E1
     199,     237,     238,     245,    1999,    2431,    2437,    2495,    2885,    3324,
    4192,    4197
*ELSET, ELSET=SS3_E4
     235,     239,     300,     699,    1141,    1996,    2014,    2395,    2432,    2434,
    2443,    4193
*SURFACE, NAME=SS3
SS3_E1, E1
SS3_E4, E4
*ELSET, ELSET=SS7_E1
    1228,    1235,    1239,    1240,    1247,    1248,    1252,    1259,    1263,    1264,
    1268,    1275,    1276,    1283,    1287,    1288,    1295,    1296,    1300,    1307,
    1308,    1315,    1319,    1320,    1324,    1331,    1335,    1336,    1343,    1344,
    1348,    1355,    1359,    1360,    1364,    1371,    1372,    1379,    1383,    1384,
    1388,    1395,    1399,    1400,    1407,    1408,    1412,    1419,    1420,    1427,
    1431,    1432,    1439,    1440,    1444,    1451,    1455,    1456,    1460,    1467,
    1468,    1475,    1479,    1480,    1484,    1491,    1495,    1496,    1503,    1504,
    1508,    1515,    1519,    1520,    1524,    1531,    1532,    1539,    1543,    1544,
    1551,    1552,    1556,    1563,    1564,    1571,    1575,    1576,    1580,    1587,
    1591,    1592,    1599,    1600,    1604,    1611,    1615,    1616,    1620,    1627,
    1628,    1635,    1639,    1640,    1644,    1651,    1655,    1656,    1663,    1664,
    1668,    1675,    1676,    1683,    1687,    1688,    1695,    1696,    1700,    1707,
    1711,    1712,    1716,    1723,    1724,    1731,    1735,    1736,    1740,    1747,
    1751,    1752,    1759,    1760,    1764,    1771,    1775,    1776,    1780,    1787,
    1788,    1795,    1799,    1800,    1807,    1808,    1812,    1819,    1820,    1827,
    1831,    1832,    1836,    1843,    1847,    1848,    1855,    1856,    1860,    1867,
    1871,    1872,    1876,    1883,    1884,    1891,    1895,    1896,    1900,    1907,
    1911,    1912,    1919,    1920,    1924,    1931,    1932,    1939,    1943,    1944,
    1951,    1952,    1956,    1963,    1967,    1968,    1972,    1979,    1980,    1987,
    1991,    1992,    3427,    3428,    3432,    3439,    3440,    3447,    3451,    3452,
** ... 19 like lines cut
*ELSET, ELSET=SS7_E4
    1229,    1232,    1236,    1241,    1244,    1249,    1253,    1256,    1260,    1265,
    1269,    1272,    1277,    1280,    1284,    1289,    1292,    1297,    1301,    1304,
    1309,    1312,    1316,    1321,    1325,    1328,    1332,    1337,    1340,    1345,
    1349,    1352,    1356,    1361,    1365,    1368,    1373,    1376,    1380,    1385,
    1389,    1392,    1396,    1401,    1404,    1409,    1413,    1416,    1421,    1424,
    1428,    1433,    1436,    1441,    1445,    1448,    1452,    1457,    1461,    1464,
    1469,    1472,    1476,    1481,    1485,    1488,    1492,    1497,    1500,    1505,
    1509,    1512,    1516,    1521,    1525,    1528,    1533,    1536,    1540,    1545,
    1548,    1553,    1557,    1560,    1565,    1568,    1572,    1577,    1581,    1584,
    1588,    1593,    1596,    1601,    1605,    1608,    1612,    1617,    1621,    1624,
    1629,    1632,    1636,    1641,    1645,    1648,    1652,    1657,    1660,    1665,
    1669,    1672,    1677,    1680,    1684,    1689,    1692,    1697,    1701,    1704,
    1708,    1713,    1717,    1720,    1725,    1728,    1732,    1737,    1741,    1744,
    1748,    1753,    1756,    1761,    1765,    1768,    1772,    1777,    1781,    1784,
    1789,    1792,    1796,    1801,    1804,    1809,    1813,    1816,    1821,    1824,
    1828,    1833,    1837,    1840,    1844,    1849,    1852,    1857,    1861,    1864,
    1868,    1873,    1877,    1880,    1885,    1888,    1892,    1897,    1901,    1904,
    1908,    1913,    1916,    1921,    1925,    1928,    1933,    1936,    1940,    1945,
    1948,    1953,    1957,    1960,    1964,    1969,    1973,    1976,    1981,    1984,
    1988,    1993,    3424,    3429,    3433,    3436,    3441,    3444,    3448,    3453,
** ... 19 like lines cut
*SURFACE, NAME=SS7
SS7_E1, E1
SS7_E4, E4
**
********************************** P R O P E R T I E S ************************
*SHELL SECTION, ELSET=EB1, SECTION INTEGRATION=SIMPSON, MATERIAL=Default-Steel
1.000000e+00
**
*END PART
**
**
**
********************************** E N D   P A R T S **********************************
**
**
********************************** A S S E M B L Y ************************************
**
*ASSEMBLY, NAME=ASSEMBLY1
**
*INSTANCE, NAME=Part-Default_1, PART=Part-Default
*END INSTANCE
**
*END ASSEMBLY
**
**
**
*MATERIAL, NAME = Default-Steel
*ELASTIC, TYPE=ISOTROPIC
2.068000e+05, 2.900000e-01
*DENSITY
7.000000e-06
*CONDUCTIVITY,TYPE=ISO
4.500000e-02
*SPECIFIC HEAT
5.000000e+02
**
**
************************************** H I S T O R Y *************************************
**
*PREPRINT
**
**************************************** S T E P 1 ***************************************
*STEP,INC=100,NAME=Default Set
**
*STATIC
1, 1, 1e-05, 1
**
**
**
**
*END STEP
