*HEADING
cubit(x/Writings/2017_QDES_DG/matlab/2d/seas/meshes/BP1_V11.inp): 04/06/2018: 13
version: 15.2
**
********************************** P A R T S **********************************
*PART, NAME=Part-Default
**
********************************** N O D E S **********************************
*NODE, NSET=ALLNODES
       1,    0.000000e+00,   -1.950000e+02,    0.000000e+00
       2,   -4.746102e+01,   -1.994064e+02,    0.000000e+00
       3,   -4.651859e+01,   -2.438783e+02,    0.000000e+00
       4,    0.000000e+00,   -2.900000e+02,    0.000000e+00
       5,   -9.003237e+01,   -2.987997e+02,    0.000000e+00
       6,   -9.205961e+01,   -2.421939e+02,    0.000000e+00
       7,   -2.900000e+02,    0.000000e+00,    0.000000e+00
       8,   -3.850000e+02,    0.000000e+00,    0.000000e+00
       9,   -3.855699e+02,   -9.188022e+01,    0.000000e+00
      10,   -2.987997e+02,   -9.003237e+01,    0.000000e+00
      11,   -4.800000e+02,    0.000000e+00,    0.000000e+00
      12,   -4.790878e+02,   -9.339859e+01,    0.000000e+00
      13,   -5.750000e+02,    0.000000e+00,    0.000000e+00
      14,   -5.740624e+02,   -9.432290e+01,    0.000000e+00
      15,   -6.700000e+02,    0.000000e+00,    0.000000e+00
      16,   -6.692876e+02,   -9.485797e+01,    0.000000e+00
      17,   -7.650000e+02,    0.000000e+00,    0.000000e+00
      18,   -7.645023e+02,   -9.516968e+01,    0.000000e+00
      19,   -8.600000e+02,    0.000000e+00,    0.000000e+00
      20,   -8.596626e+02,   -9.535284e+01,    0.000000e+00
** ... 5258 like lines cut
**
********************************** E L E M E N T S ****************************
*ELEMENT, TYPE=S4R, ELSET=EB1
       1,       1,       2,       3,       4
       2,       5,       4,       3,       6
       3,       7,       8,       9,      10
       4,       8,      11,      12,       9
       5,      11,      13,      14,      12
       6,      13,      15,      16,      14
       7,      15,      17,      18,      16
       8,      17,      19,      20,      18
       9,      19,      21,      22,      20
      10,      21,      23,      24,      22
      11,      23,      25,      26,      24
      12,      25,      27,      28,      26
      13,      27,      29,      30,      28
      14,      29,      31,      32,      30
      15,      31,      33,      34,      32
      16,      33,      35,      36,      34
      17,      35,      37,      38,      36
      18,      37,      39,      40,      38
      19,      39,      41,      42,      40
      20,      41,      43,      44,      42
** ... 5174 like lines cut
**
********************************** S I D E S E T S **********************************
*ELSET, ELSET=SS1_E1
    3018
*ELSET, ELSET=SS1_E2
      20,      40,      60,      80,     100,     120,     140,     160,     180,     200,
     220,     240,     260,     280,     300,     320,     340,     360,     380,     400,
     420
*ELSET, ELSET=SS1_E3
    2998,    2999,    3000,    3001,    3002,    3003,    3004,    3005,    3006,    3007,
    3008,    3009,    3010,    3011,    3012,    3013,    3014,    3015,    3016,    3017
*SURFACE, NAME=SS1
SS1_E1, E1
SS1_E2, E2
SS1_E3, E3
*ELSET, ELSET=SS2_E1
       3,       4,       5,       6,       7,       8,       9,      10,      11,      12,
      13,      14,      15,      16,      17,      18,      19,      20,     421,     454,
     479,     487,     524,     539,     602,     651,     694,     708,     772,     894,
    1141,    2269,    3107,    3231,    3244,    3288,    4869
*ELSET, ELSET=SS2_E2
     567,     575,     583,     591,     599,    2617,    2637,    2657,    2677,    2697,
    2717,    2737,    2757,    2777,    2797,    2817,    2837,    2857,    2877,    2897,
    2917,    2937,    2957,    2977,    2997,    3017,    3018,    3019,    3020,    3021,
    3022,    3023,    3024,    3025,    3026,    3027,    3028,    3029,    3030,    3031,
    3032,    3033,    3034,    3035
*ELSET, ELSET=SS2_E3
     401,     402,     403,     404,     405,     406,     407,     408,     409,     410,
     411,     412,     413,     414,     415,     416,     417,     418,     419,     420,
    3192,    3193,    3194,    3195,    3196
*ELSET, ELSET=SS2_E4
     488,     634,     644,     691,    2270,    2598,    3038,    3055,    3104,    3149,
    3199,    3248,    3289,    3304,    3368,    3490,    3737,    4866
*SURFACE, NAME=SS2
SS2_E1, E1
SS2_E2, E2
SS2_E3, E3
SS2_E4, E4
*ELSET, ELSET=SS3_E1
     510,     536,     537,     600,     638,     639,     646,    2400,    2600,    2601,
    2602,    2603,    2604,    2605,    2606,    2607,    2608,    2609,    2610,    2611,
    2612,    2613,    2614,    2615,    2616,    2617,    3051,    3076,    3084,    3121,
    3233,    3239,    3297,    3687,    4126,    4994,    4999
*ELSET, ELSET=SS3_E2
     421,     422,     423,     424,     425,     426,     427,     428,     429,     430,
     431,     432,     433,     434,     435,     436,     437,     438
*ELSET, ELSET=SS3_E4
       1,     441,     458,     507,     636,     640,     701,    1100,    1542,    2397,
    2415,    3085,    3133,    3141,    3197,    3234,    3236,    3245,    4995
*SURFACE, NAME=SS3
SS3_E1, E1
SS3_E2, E2
SS3_E4, E4
*ELSET, ELSET=SS7_E1
    1629,    1636,    1640,    1641,    1648,    1649,    1653,    1660,    1664,    1665,
    1669,    1676,    1677,    1684,    1688,    1689,    1696,    1697,    1701,    1708,
    1709,    1716,    1720,    1721,    1725,    1732,    1736,    1737,    1744,    1745,
    1749,    1756,    1760,    1761,    1765,    1772,    1773,    1780,    1784,    1785,
    1789,    1796,    1800,    1801,    1808,    1809,    1813,    1820,    1821,    1828,
    1832,    1833,    1840,    1841,    1845,    1852,    1856,    1857,    1861,    1868,
    1869,    1876,    1880,    1881,    1885,    1892,    1896,    1897,    1904,    1905,
    1909,    1916,    1920,    1921,    1925,    1932,    1933,    1940,    1944,    1945,
    1952,    1953,    1957,    1964,    1965,    1972,    1976,    1977,    1981,    1988,
    1992,    1993,    2000,    2001,    2005,    2012,    2016,    2017,    2021,    2028,
    2029,    2036,    2040,    2041,    2045,    2052,    2056,    2057,    2064,    2065,
    2069,    2076,    2077,    2084,    2088,    2089,    2096,    2097,    2101,    2108,
    2112,    2113,    2117,    2124,    2125,    2132,    2136,    2137,    2141,    2148,
    2152,    2153,    2160,    2161,    2165,    2172,    2176,    2177,    2181,    2188,
    2189,    2196,    2200,    2201,    2208,    2209,    2213,    2220,    2221,    2228,
    2232,    2233,    2237,    2244,    2248,    2249,    2256,    2257,    2261,    2268,
    2272,    2273,    2277,    2284,    2285,    2292,    2296,    2297,    2301,    2308,
    2312,    2313,    2320,    2321,    2325,    2332,    2333,    2340,    2344,    2345,
    2352,    2353,    2357,    2364,    2368,    2369,    2373,    2380,    2381,    2388,
    2392,    2393,    4229,    4230,    4234,    4241,    4242,    4249,    4253,    4254,
** ... 19 like lines cut
*ELSET, ELSET=SS7_E4
    1630,    1633,    1637,    1642,    1645,    1650,    1654,    1657,    1661,    1666,
    1670,    1673,    1678,    1681,    1685,    1690,    1693,    1698,    1702,    1705,
    1710,    1713,    1717,    1722,    1726,    1729,    1733,    1738,    1741,    1746,
    1750,    1753,    1757,    1762,    1766,    1769,    1774,    1777,    1781,    1786,
    1790,    1793,    1797,    1802,    1805,    1810,    1814,    1817,    1822,    1825,
    1829,    1834,    1837,    1842,    1846,    1849,    1853,    1858,    1862,    1865,
    1870,    1873,    1877,    1882,    1886,    1889,    1893,    1898,    1901,    1906,
    1910,    1913,    1917,    1922,    1926,    1929,    1934,    1937,    1941,    1946,
    1949,    1954,    1958,    1961,    1966,    1969,    1973,    1978,    1982,    1985,
    1989,    1994,    1997,    2002,    2006,    2009,    2013,    2018,    2022,    2025,
    2030,    2033,    2037,    2042,    2046,    2049,    2053,    2058,    2061,    2066,
    2070,    2073,    2078,    2081,    2085,    2090,    2093,    2098,    2102,    2105,
    2109,    2114,    2118,    2121,    2126,    2129,    2133,    2138,    2142,    2145,
    2149,    2154,    2157,    2162,    2166,    2169,    2173,    2178,    2182,    2185,
    2190,    2193,    2197,    2202,    2205,    2210,    2214,    2217,    2222,    2225,
    2229,    2234,    2238,    2241,    2245,    2250,    2253,    2258,    2262,    2265,
    2269,    2274,    2278,    2281,    2286,    2289,    2293,    2298,    2302,    2305,
    2309,    2314,    2317,    2322,    2326,    2329,    2334,    2337,    2341,    2346,
    2349,    2354,    2358,    2361,    2365,    2370,    2374,    2377,    2382,    2385,
    2389,    2394,    4226,    4231,    4235,    4238,    4243,    4246,    4250,    4255,
** ... 19 like lines cut
*SURFACE, NAME=SS7
SS7_E1, E1
SS7_E4, E4
**
********************************** P R O P E R T I E S ************************
*SHELL SECTION, ELSET=EB1, SECTION INTEGRATION=SIMPSON, MATERIAL=Default-Steel
1.000000e+00
**
*END PART
**
**
**
********************************** E N D   P A R T S **********************************
**
**
********************************** A S S E M B L Y ************************************
**
*ASSEMBLY, NAME=ASSEMBLY1
**
*INSTANCE, NAME=Part-Default_1, PART=Part-Default
*END INSTANCE
**
*END ASSEMBLY
**
**
**
*MATERIAL, NAME = Default-Steel
*ELASTIC, TYPE=ISOTROPIC
2.068000e+05, 2.900000e-01
*DENSITY
7.000000e-06
*CONDUCTIVITY,TYPE=ISO
4.500000e-02
*SPECIFIC HEAT
5.000000e+02
**
**
************************************** H I S T O R Y *************************************
**
*PREPRINT
**
**************************************** S T E P 1 ***************************************
*STEP,INC=100,NAME=Default Set
**
*STATIC
1, 1, 1e-05, 1
**
**
**
**
*END STEP
