*HEADING
cubit(x/Writings/2017_QDES_DG/matlab/2d/seas/meshes/BP1_V15.inp): 04/17/2018: 07
version: 15.2
**
********************************** P A R T S **********************************
*PART, NAME=Part-Default
**
********************************** N O D E S **********************************
*NODE, NSET=ALLNODES
       1,   -3.548068e+01,   -1.325425e+01,    0.000000e+00
       2,   -2.888913e+01,   -1.333179e+01,    0.000000e+00
       3,   -2.876041e+01,   -6.686716e+00,    0.000000e+00
       4,   -3.428571e+01,    0.000000e+00,    0.000000e+00
       5,   -2.285714e+01,    0.000000e+00,    0.000000e+00
       6,   -2.310638e+01,   -6.728359e+00,    0.000000e+00
       7,   -2.296843e+01,   -1.342680e+01,    0.000000e+00
       8,   -2.404010e+01,   -2.663968e+01,    0.000000e+00
       9,   -2.328297e+01,   -2.004968e+01,    0.000000e+00
      10,   -2.832086e+01,   -1.993964e+01,    0.000000e+00
      11,   -3.278237e+01,   -2.643005e+01,    0.000000e+00
      12,   -1.142857e+01,   -8.000000e+01,    0.000000e+00
      13,   -1.270142e+01,   -6.825328e+01,    0.000000e+00
      14,   -2.203493e+01,   -6.555952e+01,    0.000000e+00
      15,   -2.285714e+01,   -8.000000e+01,    0.000000e+00
      16,   -3.518555e+01,   -3.926499e+01,    0.000000e+00
      17,   -2.873263e+01,   -3.950996e+01,    0.000000e+00
      18,   -2.826722e+01,   -3.305903e+01,    0.000000e+00
      19,   -2.327757e+01,   -3.322693e+01,    0.000000e+00
      20,   -2.299368e+01,   -3.983279e+01,    0.000000e+00
** ... 10688 like lines cut
**
********************************** E L E M E N T S ****************************
*ELEMENT, TYPE=S4R, ELSET=EB1
       1,       1,       2,       3,       4
       2,       5,       4,       3,       6
       3,       7,       6,       3,       2
       4,       8,       9,      10,      11
       5,       1,      11,      10,       2
       6,       7,       2,      10,       9
       7,      12,      13,      14,      15
       8,      16,      17,      18,      11
       9,       8,      11,      18,      19
      10,      20,      19,      18,      17
      11,      21,      22,      23,      24
      12,      16,      24,      23,      17
      13,      15,      14,      25,      26
      14,      14,      21,      24,      25
      15,      20,      17,      23,      22
      16,      13,      27,      28,      14
      17,      21,      14,      28,      29
      18,      30,      29,      28,      27
      19,      26,      25,      31,      32
      20,      25,      24,      33,      31
** ... 10648 like lines cut
**
********************************** S I D E S E T S **********************************
*ELSET, ELSET=SS1_E2
    5341,    5348,    5355,    5362,    5369,    5376
*ELSET, ELSET=SS1_E3
      37,      38,      39,      40,      41,      42
*SURFACE, NAME=SS1
SS1_E2, E2
SS1_E3, E3
*ELSET, ELSET=SS2_E1
       2,      45,      84,     152,     276,     474,     793,     878,    5274,    5281,
    5293,    5302,    5336,    5337,    5338,    5339,    5340,    5341,    5411,    5414,
    5468,    5484,    5588,    5784,    6202,   10611,   10620,   10656,   10663
*ELSET, ELSET=SS2_E2
      24,      30,      36,      42
*ELSET, ELSET=SS2_E3
    5373,    5374,    5375,    5376
*ELSET, ELSET=SS2_E4
       7,      13,      19,      25,      31,      37,      77,      81,     134,     151,
     246,     442,     794,    5275,    5278,    5290,    5303,    5335,    5379,    5418,
    5486,    5600,    5807,    6199,    6211,   10608,   10621,   10657,   10660
*SURFACE, NAME=SS2
SS2_E1, E1
SS2_E2, E2
SS2_E3, E3
SS2_E4, E4
*ELSET, ELSET=SS3_E1
      43,      81,      82,     158,     255,     274,    1977,    1986,    2022,    2029,
    2061,    5413,    5477,    5593,    5804,    6114,    6208,    6818,    7308,    7315,
    7327,    7336,    7380
*ELSET, ELSET=SS3_E4
      79,     144,     257,     260,     266,     761,    1459,    1974,    1987,    2023,
    2026,    2058,    5377,    5414,    5416,    5488,    5604,    5805,    7309,    7312,
    7324,    7337,    7381
*SURFACE, NAME=SS3
SS3_E1, E1
SS3_E4, E4
*ELSET, ELSET=SS7_E1
     817,     824,     836,     845,    1521,    1530,    1542,    1549,    1590,    1597,
    1633,    1642,    1686,    1693,    1729,    1738,    1777,    1786,    1798,    1805,
    1846,    1853,    1889,    1898,    1937,    1946,    1958,    1965,    2074,    2081,
    2093,    2102,    2141,    2150,    2186,    2193,    2237,    2246,    2282,    2289,
    2330,    2337,    2349,    2358,    2397,    2406,    2442,    2449,    2490,    2497,
    2509,    2518,    2554,    2561,    2573,    2582,    2621,    2630,    2666,    2673,
    2717,    2726,    2762,    2769,    2810,    2817,    2829,    2838,    2874,    2881,
    2893,    2902,    2941,    2950,    2986,    2993,    3034,    3041,    3053,    3062,
    3101,    3110,    3146,    3153,    3197,    3206,    3242,    3249,    3290,    3297,
    3309,    3318,    3354,    3361,    3373,    3382,    3421,    3430,    3466,    3473,
    3517,    3526,    3562,    3569,    3610,    3617,    3629,    3638,    3677,    3686,
    3722,    3729,    3770,    3777,    3789,    3798,    3834,    3841,    3853,    3862,
    3901,    3910,    3946,    3953,    3997,    4006,    4042,    4049,    4090,    4097,
    4109,    4118,    4154,    4161,    4173,    4182,    4221,    4230,    4266,    4273,
    4314,    4321,    4333,    4342,    4381,    4390,    4426,    4433,    4477,    4486,
    4522,    4529,    4570,    4577,    4589,    4598,    4634,    4641,    4653,    4662,
    4701,    4710,    4746,    4753,    4797,    4806,    4842,    4849,    4890,    4897,
    4909,    4918,    4957,    4966,    5002,    5009,    5050,    5057,    5069,    5078,
    5114,    5121,    5133,    5142,    5181,    5190,    5226,    5233,    5277,    5286,
    5322,    5329,    6122,    6131,    6167,    6174,    6860,    6867,    6903,    6912,
** ... 19 like lines cut
*ELSET, ELSET=SS7_E4
     818,     821,     833,     846,    1520,    1533,    1545,    1548,    1593,    1596,
    1632,    1645,    1689,    1692,    1728,    1741,    1776,    1789,    1801,    1804,
    1849,    1852,    1888,    1901,    1936,    1949,    1961,    1964,    2075,    2078,
    2090,    2103,    2138,    2151,    2187,    2190,    2234,    2247,    2283,    2286,
    2331,    2334,    2346,    2359,    2394,    2407,    2443,    2446,    2491,    2494,
    2506,    2519,    2555,    2558,    2570,    2583,    2618,    2631,    2667,    2670,
    2714,    2727,    2763,    2766,    2811,    2814,    2826,    2839,    2875,    2878,
    2890,    2903,    2938,    2951,    2987,    2990,    3035,    3038,    3050,    3063,
    3098,    3111,    3147,    3150,    3194,    3207,    3243,    3246,    3291,    3294,
    3306,    3319,    3355,    3358,    3370,    3383,    3418,    3431,    3467,    3470,
    3514,    3527,    3563,    3566,    3611,    3614,    3626,    3639,    3674,    3687,
    3723,    3726,    3771,    3774,    3786,    3799,    3835,    3838,    3850,    3863,
    3898,    3911,    3947,    3950,    3994,    4007,    4043,    4046,    4091,    4094,
    4106,    4119,    4155,    4158,    4170,    4183,    4218,    4231,    4267,    4270,
    4315,    4318,    4330,    4343,    4378,    4391,    4427,    4430,    4474,    4487,
    4523,    4526,    4571,    4574,    4586,    4599,    4635,    4638,    4650,    4663,
    4698,    4711,    4747,    4750,    4794,    4807,    4843,    4846,    4891,    4894,
    4906,    4919,    4954,    4967,    5003,    5006,    5051,    5054,    5066,    5079,
    5115,    5118,    5130,    5143,    5178,    5191,    5227,    5230,    5274,    5287,
    5323,    5326,    6119,    6132,    6168,    6171,    6863,    6866,    6902,    6915,
** ... 19 like lines cut
*SURFACE, NAME=SS7
SS7_E1, E1
SS7_E4, E4
**
********************************** P R O P E R T I E S ************************
*SHELL SECTION, ELSET=EB1, SECTION INTEGRATION=SIMPSON, MATERIAL=Default-Steel
1.000000e+00
**
*END PART
**
**
**
********************************** E N D   P A R T S **********************************
**
**
********************************** A S S E M B L Y ************************************
**
*ASSEMBLY, NAME=ASSEMBLY1
**
*INSTANCE, NAME=Part-Default_1, PART=Part-Default
*END INSTANCE
**
*END ASSEMBLY
**
**
**
*MATERIAL, NAME = Default-Steel
*ELASTIC, TYPE=ISOTROPIC
2.068000e+05, 2.900000e-01
*DENSITY
7.000000e-06
*CONDUCTIVITY,TYPE=ISO
4.500000e-02
*SPECIFIC HEAT
5.000000e+02
**
**
************************************** H I S T O R Y *************************************
**
*PREPRINT
**
**************************************** S T E P 1 ***************************************
*STEP,INC=100,NAME=Default Set
**
*STATIC
1, 1, 1e-05, 1
**
**
**
**
*END STEP
