*HEADING
cubit(ox/Writings/2017_QDES_DG/matlab/2d/seas/meshes/BP2_V3.inp): 11/17/2018: 08
version: 15.2
**
********************************** P A R T S **********************************
*PART, NAME=Part-Default
**
********************************** N O D E S **********************************
*NODE, NSET=ALLNODES
       1,   -3.534962e+01,   -1.344096e+01,    0.000000e+00
       2,   -2.867145e+01,   -1.354392e+01,    0.000000e+00
       3,   -2.829695e+01,   -6.811085e+00,    0.000000e+00
       4,   -3.428571e+01,    0.000000e+00,    0.000000e+00
       5,   -2.285714e+01,    0.000000e+00,    0.000000e+00
       6,   -2.193369e+01,   -6.889334e+00,    0.000000e+00
       7,   -2.321644e+01,   -1.365421e+01,    0.000000e+00
       8,   -2.438313e+01,   -2.694690e+01,    0.000000e+00
       9,   -2.222499e+01,   -2.035756e+01,    0.000000e+00
      10,   -2.781695e+01,   -2.024083e+01,    0.000000e+00
      11,   -3.255570e+01,   -2.681299e+01,    0.000000e+00
      12,   -3.478346e+01,   -4.002995e+01,    0.000000e+00
      13,   -2.837740e+01,   -4.005382e+01,    0.000000e+00
      14,   -2.771917e+01,   -3.346432e+01,    0.000000e+00
      15,   -2.221841e+01,   -3.352309e+01,    0.000000e+00
      16,   -2.324857e+01,   -4.007646e+01,    0.000000e+00
      17,   -2.454389e+01,   -5.311130e+01,    0.000000e+00
      18,   -2.225132e+01,   -4.663616e+01,    0.000000e+00
      19,   -2.775402e+01,   -4.664251e+01,    0.000000e+00
      20,   -3.261340e+01,   -5.322985e+01,    0.000000e+00
** ... 877 like lines cut
**
********************************** E L E M E N T S ****************************
*ELEMENT, TYPE=S4R, ELSET=EB1
       1,       1,       2,       3,       4
       2,       5,       4,       3,       6
       3,       7,       6,       3,       2
       4,       8,       9,      10,      11
       5,       1,      11,      10,       2
       6,       7,       2,      10,       9
       7,      12,      13,      14,      11
       8,       8,      11,      14,      15
       9,      16,      15,      14,      13
      10,      17,      18,      19,      20
      11,      12,      20,      19,      13
      12,      16,      13,      19,      18
      13,      21,      22,      23,      20
      14,      17,      20,      23,      24
      15,      25,      24,      23,      22
      16,      26,      27,      28,      29
      17,      21,      29,      28,      22
      18,      25,      22,      28,      27
      19,      29,      21,      30,      31
      20,      21,      20,      32,      30
** ... 846 like lines cut
**
********************************** S I D E S E T S **********************************
*ELSET, ELSET=SS1_E2
     440,     447,     454,     461,     468,     475
*ELSET, ELSET=SS1_E3
      37,      38,      39,      40,      41,      42
*SURFACE, NAME=SS1
SS1_E2, E2
SS1_E3, E3
*ELSET, ELSET=SS2_E1
       2,      45,      87,      99,     193,     206,     293,     390,     437,     438,
     439,     440,     470,     476,     513,     517,     614,     627,     731,     826
*ELSET, ELSET=SS2_E2
      24,      30,      36,      42
*ELSET, ELSET=SS2_E3
     472,     473,     474,     475
*ELSET, ELSET=SS2_E4
      16,      19,      25,      31,      37,      44,      82,      85,     153,     195,
     290,     391,     434,     478,     521,     536,     626,     639,     732,     823
*SURFACE, NAME=SS2
SS2_E1, E1
SS2_E2, E2
SS2_E3, E3
SS2_E4, E4
*ELSET, ELSET=SS3_E1
      77,      85,      92,      97,     197,     202,     512,     516,     526,     634,
     736,     840
*ELSET, ELSET=SS3_E4
      79,      83,      89,     203,     304,     408,     511,     517,     527,     534,
     628,     631
*SURFACE, NAME=SS3
SS3_E1, E1
SS3_E4, E4
*ELSET, ELSET=SS7_E1
     310,     317,     321,     322,     329,     330,     334,     341,     342,     349,
     353,     354,     361,     362,     366,     373,     374,     381,     385,     386,
     393,     394,     398,     405,     746,     747,     751,     758,     759,     766,
     770,     771,     778,     779,     783,     790,     791,     798,     802,     803,
     810,     811,     815,     822,     823,     830,     834,     835
*ELSET, ELSET=SS7_E4
     311,     314,     318,     323,     326,     331,     335,     338,     343,     346,
     350,     355,     358,     363,     367,     370,     375,     378,     382,     387,
     390,     395,     399,     402,     743,     748,     752,     755,     760,     763,
     767,     772,     775,     780,     784,     787,     792,     795,     799,     804,
     807,     812,     816,     819,     824,     827,     831,     836
*SURFACE, NAME=SS7
SS7_E1, E1
SS7_E4, E4
**
********************************** P R O P E R T I E S ************************
*SHELL SECTION, ELSET=EB1, SECTION INTEGRATION=SIMPSON, MATERIAL=Default-Steel
1.000000e+00
**
*END PART
**
**
**
********************************** E N D   P A R T S **********************************
**
**
********************************** A S S E M B L Y ************************************
**
*ASSEMBLY, NAME=ASSEMBLY1
**
*INSTANCE, NAME=Part-Default_1, PART=Part-Default
*END INSTANCE
**
*END ASSEMBLY
**
**
**
*MATERIAL, NAME = Default-Steel
*ELASTIC, TYPE=ISOTROPIC
2.068000e+05, 2.900000e-01
*DENSITY
7.000000e-06
*CONDUCTIVITY,TYPE=ISO
4.500000e-02
*SPECIFIC HEAT
5.000000e+02
**
**
************************************** H I S T O R Y *************************************
**
*PREPRINT
**
**************************************** S T E P 1 ***************************************
*STEP,INC=100,NAME=Default Set
**
*STATIC
1, 1, 1e-05, 1
**
**
**
**
*END STEP
